# Head-Observation Package of the Observation Process of MODFLOW-2000.
# These observations are for generating the data shown in the hydrographs
#   of fig. 17 in WRI 02-4200.
# Head data from GWSI data base.   GWSI site ID and well abreviation in this file are:
#
#USGS 353727106202401 COCHI
#USGS 352420106244601 SNFEL
#USGS 352032106330601 SNTA2
#USGS 351843106294501 TRRMR
#USGS 351556106315901 SDECW2
#USGS 351336106315901 SDECW1
#USGS 351046106464703 WM2
#USGS 351025106341601 COR1
#USGS 350950106434001 VC1
#USGS 350837106393801 CTY3
#USGS 350824106375301 CTY2
#USGS 350747106323301 THOM2
#USGS 350548106383901 CTY1
#USGS 350449106493102 WM1A
#USGS 350430106302401 LOM1
#USGS 350233106345201 SND2
#USGS 345524106353901 ISECW3
#USGS 345000106455501 GRSLND
#USGS 343853106494101 BLNAP
#USGS 343428106383301 MCLAU
#USGS 342107106530401 SEVI
#
      1704       937         2                                                                 Item 1: NH MOBS MAXM
   1.000000       1.000000                                                                     Item 2: TOMULTH EVH
  COCHI         1    7   69  -10   0.000   0.377   0.005     0.00 0.0  0  0  ITEM3
   1        ITEM5
COCHI75.41     17  148.74  5216.77  3.0  0.1  1  1  ITEM6
COCHI76.12     18   42.43  5213.83  3.0  0.1  1  1  ITEM6
COCHI77.05     19   16.99  5226.76  3.0  0.1  1  1  ITEM6
COCHI78.08     20   30.99  5247.28  3.0  0.1  1  1  ITEM6
COCHI79.04     21   15.99  5231.50  3.0  0.1  1  1  ITEM6
COCHI79.64     21  235.05  5279.87  3.0  0.1  1  1  ITEM6
COCHI80.08     22   28.99  5232.52  3.0  0.1  1  1  ITEM6
COCHI81.18     23   65.86  5281.51  3.0  0.1  1  1  ITEM6
COCHI85.06     27   21.99  5248.05  3.0  0.1  1  1  ITEM6
COCHI00.07     52   86.99  5214.17  3.0  0.1  1  1  ITEM6
  SNFEL        -2   30   64  -11   0.000   0.223  -0.367     0.00 0.0  0  0  ITEM3
  3  0.676  4  0.324                                          ITEM4
   1        ITEM5
SNFEL75.41     17  150.74  5143.89  3.0  0.1  1  1  ITEM6
SNFEL76.12     18   42.43  5142.10  3.0  0.1  1  1  ITEM6
SNFEL77.05     19   16.99  5144.30  3.0  0.1  1  1  ITEM6
SNFEL78.08     20   30.99  5142.73  3.0  0.1  1  1  ITEM6
SNFEL79.04     21   15.99  5143.44  3.0  0.1  1  1  ITEM6
SNFEL80.08     22   28.99  5143.13  3.0  0.1  1  1  ITEM6
SNFEL81.18     23   65.86  5142.96  3.0  0.1  1  1  ITEM6
SNFEL85.06     27   21.99  5144.57  3.0  0.1  1  1  ITEM6
SNFEL90.06     32   21.99  5144.45  3.0  0.1  1  1  ITEM6
SNFEL95.11     42   99.43  5144.26  3.0  0.1  1  1  ITEM6
SNFEL00.21     52  135.15  5145.45  3.0  0.1  1  1  ITEM6
  SNTA2        -2   37   51  -95   0.000   0.299   0.059     0.00 0.0  0  0  ITEM3
  3  0.731  4  0.269                                          ITEM4
   1        ITEM5
SNTA284.18     26   65.86  5045.00  3.0  0.1  1  1  ITEM6
SNTA285.16     27   57.43  5044.87  3.0  0.1  1  1  ITEM6
SNTA285.24     27   87.86  5045.40  3.0  0.1  1  1  ITEM6
SNTA285.32     27  116.30  5045.83  3.0  0.1  1  1  ITEM6
SNTA285.40     27  145.74  5045.02  3.0  0.1  1  1  ITEM6
SNTA285.49     27  177.18  5043.69  3.0  0.1  1  1  ITEM6
SNTA285.58     27  212.61  5046.40  3.0  0.1  1  1  ITEM6
SNTA285.65     27  239.05  5044.93  3.0  0.1  1  1  ITEM6
SNTA285.74     27  269.49  5041.58  3.0  0.1  1  1  ITEM6
SNTA285.83     27  302.92  5044.42  3.0  0.1  1  1  ITEM6
SNTA285.90     27  330.36  5044.40  3.0  0.1  1  1  ITEM6
SNTA286.08     28   27.99  5044.52  3.0  0.1  1  1  ITEM6
SNTA286.25     28   92.30  5045.26  3.0  0.1  1  1  ITEM6
SNTA286.41     28  150.74  5045.22  3.0  0.1  1  1  ITEM6
SNTA286.58     28  213.61  5045.54  3.0  0.1  1  1  ITEM6
SNTA286.75     28  272.49  5044.80  3.0  0.1  1  1  ITEM6
SNTA286.83     28  302.92  5045.28  3.0  0.1  1  1  ITEM6
SNTA286.98     28  356.80  5045.60  3.0  0.1  1  1  ITEM6
SNTA287.05     29   19.99  5045.21  3.0  0.1  1  1  ITEM6
SNTA287.16     29   57.43  5045.61  3.0  0.1  1  1  ITEM6
SNTA287.24     29   86.86  5045.47  3.0  0.1  1  1  ITEM6
SNTA287.33     29  121.30  5044.43  3.0  0.1  1  1  ITEM6
SNTA287.41     29  148.74  5045.70  3.0  0.1  1  1  ITEM6
SNTA287.48     29  175.18  5045.19  3.0  0.1  1  1  ITEM6
SNTA287.57     29  209.61  5045.33  3.0  0.1  1  1  ITEM6
SNTA287.66     29  241.05  5044.48  3.0  0.1  1  1  ITEM6
SNTA287.74     29  271.49  5044.27  3.0  0.1  1  1  ITEM6
SNTA287.83     29  302.92  5044.11  3.0  0.1  1  1  ITEM6
SNTA287.92     29  334.36  5044.54  3.0  0.1  1  1  ITEM6
SNTA288.00     29  363.80  5044.59  3.0  0.1  1  1  ITEM6
SNTA288.09     30   31.43  5044.57  3.0  0.1  1  1  ITEM6
SNTA288.25     30   89.86  5044.83  3.0  0.1  1  1  ITEM6
SNTA288.33     30  119.30  5044.72  3.0  0.1  1  1  ITEM6
SNTA288.41     30  148.74  5044.83  3.0  0.1  1  1  ITEM6
SNTA288.50     30  182.18  5043.95  3.0  0.1  1  1  ITEM6
SNTA288.57     30  207.61  5043.56  3.0  0.1  1  1  ITEM6
SNTA288.74     30  271.49  5043.64  3.0  0.1  1  1  ITEM6
SNTA288.99     30  362.80  5044.01  3.0  0.1  1  1  ITEM6
SNTA289.15     31   53.43  5043.71  3.0  0.1  1  1  ITEM6
SNTA289.33     31  119.30  5044.27  3.0  0.1  1  1  ITEM6
SNTA289.42     31  153.18  5043.70  3.0  0.1  1  1  ITEM6
SNTA289.51     31  187.61  5043.52  3.0  0.1  1  1  ITEM6
SNTA289.59     31  214.05  5043.43  3.0  0.1  1  1  ITEM6
SNTA289.67     31  243.05  5043.18  3.0  0.1  1  1  ITEM6
SNTA289.92     31  334.36  5043.08  3.0  0.1  1  1  ITEM6
SNTA290.02     32    7.99  5043.43  3.0  0.1  1  1  ITEM6
SNTA290.10     32   37.43  5043.37  3.0  0.1  1  1  ITEM6
SNTA290.19     32   67.87  5043.49  3.0  0.1  1  1  ITEM6
SNTA290.26     33   22.06  5043.57  3.0  0.1  1  1  ITEM6
SNTA290.35     33   54.49  5043.40  3.0  0.1  1  1  ITEM6
SNTA290.43     33   83.93  5043.52  3.0  0.1  1  1  ITEM6
SNTA290.51     33  111.36  5043.23  3.0  0.1  1  1  ITEM6
SNTA290.60     33  145.80  5043.20  3.0  0.1  1  1  ITEM6
SNTA290.69     33  176.24  5043.16  3.0  0.1  1  1  ITEM6
SNTA290.76     33  202.68  5043.30  3.0  0.1  1  1  ITEM6
SNTA290.83     34    0.68  5043.23  3.0  0.1  1  1  ITEM6
SNTA290.93     34   35.55  5043.35  3.0  0.1  1  1  ITEM6
SNTA291.01     34   64.99  5043.20  3.0  0.1  1  1  ITEM6
SNTA291.10     34   98.43  5043.22  3.0  0.1  1  1  ITEM6
SNTA291.18     34  127.87  5044.38  3.0  0.1  1  1  ITEM6
SNTA291.26     35   20.06  5044.38  3.0  0.1  1  1  ITEM6
SNTA291.34     35   48.49  5043.78  3.0  0.1  1  1  ITEM6
SNTA291.42     35   80.93  5044.10  3.0  0.1  1  1  ITEM6
SNTA291.68     35  173.24  5043.15  3.0  0.1  1  1  ITEM6
SNTA291.77     35  206.68  5043.22  3.0  0.1  1  1  ITEM6
SNTA291.85     36    7.11  5043.24  3.0  0.1  1  1  ITEM6
SNTA292.02     36   68.99  5043.64  3.0  0.1  1  1  ITEM6
SNTA292.10     36   98.43  5043.71  3.0  0.1  1  1  ITEM6
SNTA292.17     36  123.87  5043.61  3.0  0.1  1  1  ITEM6
SNTA292.24     37   13.62  5043.83  3.0  0.1  1  1  ITEM6
SNTA292.35     37   53.49  5044.72  3.0  0.1  1  1  ITEM6
SNTA292.42     37   79.93  5044.75  3.0  0.1  1  1  ITEM6
SNTA292.67     37  171.24  5042.98  3.0  0.1  1  1  ITEM6
SNTA292.76     37  201.68  5042.86  3.0  0.1  1  1  ITEM6
SNTA292.82     37  225.68  5042.79  3.0  0.1  1  1  ITEM6
SNTA292.92     38   32.55  5042.94  3.0  0.1  1  1  ITEM6
SNTA293.03     38   71.99  5043.21  3.0  0.1  1  1  ITEM6
SNTA293.20     38  132.87  5043.34  3.0  0.1  1  1  ITEM6
SNTA295.30     43   35.06  5043.24  3.0  0.1  1  1  ITEM6
SNTA295.49     43  105.93  5044.10  3.0  0.1  1  1  ITEM6
SNTA295.83     43  229.68  5043.23  3.0  0.1  1  1  ITEM6
SNTA296.08     44   90.99  5043.73  3.0  0.1  1  1  ITEM6
SNTA296.36     45   56.49  5044.25  3.0  0.1  1  1  ITEM6
SNTA296.74     45  195.24  5043.99  3.0  0.1  1  1  ITEM6
SNTA297.00     46   61.55  5044.27  3.0  0.1  1  1  ITEM6
SNTA297.24     47   13.62  5044.16  3.0  0.1  1  1  ITEM6
SNTA297.47     47   96.93  5044.97  3.0  0.1  1  1  ITEM6
SNTA297.73     47  193.24  5045.10  3.0  0.1  1  1  ITEM6
SNTA298.00     48   61.55  5045.37  3.0  0.1  1  1  ITEM6
SNTA298.25     49   17.62  5045.69  3.0  0.1  1  1  ITEM6
SNTA298.52     49  116.36  5046.03  3.0  0.1  1  1  ITEM6
SNTA299.01     50   65.99  5045.60  3.0  0.1  1  1  ITEM6
SNTA299.25     51   18.06  5045.68  3.0  0.1  1  1  ITEM6
SNTA299.50     51  106.93  5045.65  3.0  0.1  1  1  ITEM6
SNTA200.11     52   99.43  5045.52  3.0  0.1  1  1  ITEM6
  TRRMR        -2   41   56 -128   0.000  -0.346   0.132     0.00 0.0  0  0  ITEM3
  4  0.802  5  0.198                                          ITEM4
   1        ITEM5
TRRMR82.93     24  340.80  5055.15  3.0  0.1  1  1  ITEM6
TRRMR83.07     25   24.99  5054.39  3.0  0.1  1  1  ITEM6
TRRMR83.14     25   52.43  5056.90  3.0  0.1  1  1  ITEM6
TRRMR83.25     25   89.86  5054.17  3.0  0.1  1  1  ITEM6
TRRMR83.33     25  119.30  5054.23  3.0  0.1  1  1  ITEM6
TRRMR83.40     25  147.74  5054.20  3.0  0.1  1  1  ITEM6
TRRMR83.48     25  176.18  5054.20  3.0  0.1  1  1  ITEM6
TRRMR83.56     25  203.61  5054.15  3.0  0.1  1  1  ITEM6
TRRMR83.65     25  239.05  5050.31  3.0  0.1  1  1  ITEM6
TRRMR83.75     25  273.49  5045.20  3.0  0.1  1  1  ITEM6
TRRMR83.82     25  298.92  5038.12  3.0  0.1  1  1  ITEM6
TRRMR83.89     25  326.36  5038.08  3.0  0.1  1  1  ITEM6
TRRMR84.08     26   29.99  5045.45  3.0  0.1  1  1  ITEM6
TRRMR84.14     26   51.43  5053.18  3.0  0.1  1  1  ITEM6
TRRMR84.23     26   83.86  5053.96  3.0  0.1  1  1  ITEM6
TRRMR84.32     26  118.30  5053.91  3.0  0.1  1  1  ITEM6
TRRMR84.39     26  142.74  5054.92  3.0  0.1  1  1  ITEM6
TRRMR84.49     26  179.18  5053.76  3.0  0.1  1  1  ITEM6
TRRMR84.67     26  244.05  5054.00  3.0  0.1  1  1  ITEM6
TRRMR85.32     27  116.30  5047.03  3.0  0.1  1  1  ITEM6
TRRMR85.40     27  145.74  5053.97  3.0  0.1  1  1  ITEM6
TRRMR85.49     27  177.18  5049.04  3.0  0.1  1  1  ITEM6
TRRMR85.58     27  212.61  5051.24  3.0  0.1  1  1  ITEM6
TRRMR85.65     27  239.05  5050.82  3.0  0.1  1  1  ITEM6
TRRMR85.74     27  269.49  5048.89  3.0  0.1  1  1  ITEM6
TRRMR85.83     27  302.92  5054.18  3.0  0.1  1  1  ITEM6
TRRMR85.90     27  330.36  5054.29  3.0  0.1  1  1  ITEM6
TRRMR85.98     27  357.80  5054.31  3.0  0.1  1  1  ITEM6
TRRMR86.08     28   27.99  5041.31  3.0  0.1  1  1  ITEM6
TRRMR86.25     28   92.30  5054.05  3.0  0.1  1  1  ITEM6
TRRMR86.41     28  150.74  5047.20  3.0  0.1  1  1  ITEM6
TRRMR86.58     28  213.61  5047.15  3.0  0.1  1  1  ITEM6
TRRMR86.75     28  272.49  5047.12  3.0  0.1  1  1  ITEM6
TRRMR86.83     28  302.92  5053.50  3.0  0.1  1  1  ITEM6
TRRMR86.98     28  356.80  5045.59  3.0  0.1  1  1  ITEM6
TRRMR87.05     29   19.99  5053.80  3.0  0.1  1  1  ITEM6
TRRMR87.16     29   57.43  5053.97  3.0  0.1  1  1  ITEM6
TRRMR87.24     29   86.86  5053.81  3.0  0.1  1  1  ITEM6
TRRMR87.33     29  121.30  5054.02  3.0  0.1  1  1  ITEM6
TRRMR87.41     29  148.74  5053.78  3.0  0.1  1  1  ITEM6
TRRMR87.58     29  210.61  5054.43  3.0  0.1  1  1  ITEM6
TRRMR87.66     29  241.05  5047.94  3.0  0.1  1  1  ITEM6
TRRMR87.75     29  273.49  5045.61  3.0  0.1  1  1  ITEM6
TRRMR87.83     29  302.92  5047.62  3.0  0.1  1  1  ITEM6
TRRMR87.92     29  334.36  5048.68  3.0  0.1  1  1  ITEM6
TRRMR88.00     29  363.80  5054.42  3.0  0.1  1  1  ITEM6
TRRMR88.09     30   31.43  5046.19  3.0  0.1  1  1  ITEM6
TRRMR88.25     30   89.86  5044.14  3.0  0.1  1  1  ITEM6
TRRMR88.33     30  120.30  5046.71  3.0  0.1  1  1  ITEM6
TRRMR88.41     30  148.74  5053.32  3.0  0.1  1  1  ITEM6
TRRMR88.50     30  182.18  5054.23  3.0  0.1  1  1  ITEM6
TRRMR88.57     30  207.61  5054.06  3.0  0.1  1  1  ITEM6
TRRMR88.68     30  249.49  5053.42  3.0  0.1  1  1  ITEM6
TRRMR88.99     30  362.80  5054.06  3.0  0.1  1  1  ITEM6
TRRMR89.08     31   30.99  5054.13  3.0  0.1  1  1  ITEM6
TRRMR89.16     31   57.43  5053.53  3.0  0.1  1  1  ITEM6
TRRMR89.33     31  119.30  5053.87  3.0  0.1  1  1  ITEM6
TRRMR89.42     31  153.18  5053.62  3.0  0.1  1  1  ITEM6
TRRMR89.51     31  187.61  5053.70  3.0  0.1  1  1  ITEM6
TRRMR89.59     31  214.05  5053.68  3.0  0.1  1  1  ITEM6
TRRMR89.67     31  243.05  5053.73  3.0  0.1  1  1  ITEM6
TRRMR89.83     31  304.92  5053.55  3.0  0.1  1  1  ITEM6
TRRMR89.92     31  334.36  5053.65  3.0  0.1  1  1  ITEM6
TRRMR90.02     32    7.99  5053.56  3.0  0.1  1  1  ITEM6
TRRMR90.10     32   37.43  5053.62  3.0  0.1  1  1  ITEM6
TRRMR90.19     32   67.87  5053.48  3.0  0.1  1  1  ITEM6
TRRMR90.26     33   22.06  5053.61  3.0  0.1  1  1  ITEM6
TRRMR90.35     33   54.49  5053.66  3.0  0.1  1  1  ITEM6
TRRMR90.51     33  113.36  5053.33  3.0  0.1  1  1  ITEM6
TRRMR90.60     33  145.80  5053.32  3.0  0.1  1  1  ITEM6
TRRMR90.69     33  176.24  5053.31  3.0  0.1  1  1  ITEM6
TRRMR90.76     33  202.68  5053.32  3.0  0.1  1  1  ITEM6
TRRMR90.83     34    0.68  5053.37  3.0  0.1  1  1  ITEM6
TRRMR90.93     34   35.55  5053.42  3.0  0.1  1  1  ITEM6
TRRMR91.01     34   64.99  5053.48  3.0  0.1  1  1  ITEM6
TRRMR91.10     34   97.43  5053.28  3.0  0.1  1  1  ITEM6
TRRMR91.18     34  127.87  5053.28  3.0  0.1  1  1  ITEM6
TRRMR91.26     35   20.06  5053.18  3.0  0.1  1  1  ITEM6
TRRMR91.34     35   48.49  5053.01  3.0  0.1  1  1  ITEM6
TRRMR91.42     35   80.93  5054.11  3.0  0.1  1  1  ITEM6
TRRMR91.53     35  119.36  5052.87  3.0  0.1  1  1  ITEM6
TRRMR91.54     35  124.36  5046.36  3.0  0.1  1  1  ITEM6
TRRMR91.68     35  173.24  5052.94  3.0  0.1  1  1  ITEM6
TRRMR91.77     35  206.68  5045.58  3.0  0.1  1  1  ITEM6
TRRMR92.02     36   68.99  5052.76  3.0  0.1  1  1  ITEM6
TRRMR92.10     36   98.43  5052.87  3.0  0.1  1  1  ITEM6
TRRMR92.17     36  123.87  5052.82  3.0  0.1  1  1  ITEM6
TRRMR92.24     37   13.62  5052.92  3.0  0.1  1  1  ITEM6
TRRMR92.35     37   53.49  5052.69  3.0  0.1  1  1  ITEM6
TRRMR92.42     37   79.93  5052.71  3.0  0.1  1  1  ITEM6
TRRMR92.52     37  115.36  5052.63  3.0  0.1  1  1  ITEM6
TRRMR92.67     37  171.24  5052.52  3.0  0.1  1  1  ITEM6
TRRMR92.76     37  204.68  5052.46  3.0  0.1  1  1  ITEM6
TRRMR92.82     37  225.68  5052.66  3.0  0.1  1  1  ITEM6
TRRMR92.92     38   32.55  5052.71  3.0  0.1  1  1  ITEM6
TRRMR93.03     38   71.99  5052.66  3.0  0.1  1  1  ITEM6
TRRMR93.09     38   92.43  5052.66  3.0  0.1  1  1  ITEM6
TRRMR93.20     38  132.87  5052.63  3.0  0.1  1  1  ITEM6
TRRMR93.27     39   24.06  5052.39  3.0  0.1  1  1  ITEM6
TRRMR93.35     39   52.49  5052.43  3.0  0.1  1  1  ITEM6
TRRMR93.44     39   85.93  5052.42  3.0  0.1  1  1  ITEM6
TRRMR93.60     39  143.80  5053.30  3.0  0.1  1  1  ITEM6
TRRMR93.70     39  182.24  5051.89  3.0  0.1  1  1  ITEM6
TRRMR93.78     39  211.68  5052.35  3.0  0.1  1  1  ITEM6
TRRMR93.84     40    2.11  5051.90  3.0  0.1  1  1  ITEM6
TRRMR93.93     40   36.55  5052.39  3.0  0.1  1  1  ITEM6
TRRMR94.00     40   59.55  5052.29  3.0  0.1  1  1  ITEM6
TRRMR94.21     41    3.62  5052.62  3.0  0.1  1  1  ITEM6
TRRMR94.28     41   29.06  5052.28  3.0  0.1  1  1  ITEM6
TRRMR94.35     41   52.49  5052.40  3.0  0.1  1  1  ITEM6
TRRMR94.52     41  114.36  5052.20  3.0  0.1  1  1  ITEM6
TRRMR94.90     42   23.11  5052.11  3.0  0.1  1  1  ITEM6
TRRMR95.07     42   84.99  5052.31  3.0  0.1  1  1  ITEM6
TRRMR95.30     43   35.06  5052.23  3.0  0.1  1  1  ITEM6
TRRMR95.49     43  105.93  5051.00  3.0  0.1  1  1  ITEM6
TRRMR95.83     43  229.68  5051.93  3.0  0.1  1  1  ITEM6
TRRMR96.08     44   90.99  5051.96  3.0  0.1  1  1  ITEM6
TRRMR96.36     45   56.49  5051.93  3.0  0.1  1  1  ITEM6
TRRMR96.74     45  195.24  5051.90  3.0  0.1  1  1  ITEM6
TRRMR97.00     46   61.55  5051.74  3.0  0.1  1  1  ITEM6
TRRMR97.24     47   13.62  5052.66  3.0  0.1  1  1  ITEM6
TRRMR97.47     47   96.93  5043.41  3.0  0.1  1  1  ITEM6
TRRMR97.96     48   46.55  5051.38  3.0  0.1  1  1  ITEM6
TRRMR98.52     49  117.36  5050.37  3.0  0.1  1  1  ITEM6
TRRMR98.82     49  226.68  5050.84  3.0  0.1  1  1  ITEM6
TRRMR99.02     50   66.99  5051.42  3.0  0.1  1  1  ITEM6
TRRMR99.48     51   99.93  5049.81  3.0  0.1  1  1  ITEM6
TRRMR00.11     52   99.43  5049.93  3.0  0.1  1  1  ITEM6
  SDECW2        2   46   53 -109   0.000  -0.180  -0.234     0.00 0.0  0  0  ITEM3
   1        ITEM5
SDECW257.24    13  816.36  5063.00  3.0  0.1  1  1  ITEM6
SDECW257.43    13  888.68  5065.04  3.0  0.1  1  1  ITEM6
SDECW257.83    13 1034.42  5064.92  3.0  0.1  1  1  ITEM6
SDECW258.08    13 1123.74  5064.57  3.0  0.1  1  1  ITEM6
SDECW258.20    13 1168.61  5064.75  3.0  0.1  1  1  ITEM6
SDECW258.31    13 1209.05  5064.60  3.0  0.1  1  1  ITEM6
SDECW258.82    13 1393.67  5064.57  3.0  0.1  1  1  ITEM6
SDECW258.96    13 1445.55  5064.42  3.0  0.1  1  1  ITEM6
SDECW259.07    13 1486.99  5064.85  3.0  0.1  1  1  ITEM6
SDECW259.29    13 1568.30  5064.74  3.0  0.1  1  1  ITEM6
SDECW259.52    13 1651.61  5064.59  3.0  0.1  1  1  ITEM6
SDECW259.77    13 1742.92  5064.45  3.0  0.1  1  1  ITEM6
SDECW259.86    13 1775.36  5064.80  3.0  0.1  1  1  ITEM6
SDECW259.92    13 1797.80  5064.47  3.0  0.1  1  1  ITEM6
SDECW260.02    14    5.99  5064.46  3.0  0.1  1  1  ITEM6
SDECW260.18    14   64.86  5064.35  3.0  0.1  1  1  ITEM6
SDECW260.35    14  127.74  5064.22  3.0  0.1  1  1  ITEM6
SDECW260.54    14  195.61  5064.37  3.0  0.1  1  1  ITEM6
SDECW260.68    14  249.49  5064.45  3.0  0.1  1  1  ITEM6
SDECW260.80    14  291.92  5064.50  3.0  0.1  1  1  ITEM6
SDECW260.86    14  314.36  5064.10  3.0  0.1  1  1  ITEM6
SDECW260.95    14  346.80  5064.15  3.0  0.1  1  1  ITEM6
SDECW261.07    14  390.24  5064.15  3.0  0.1  1  1  ITEM6
SDECW261.19    14  436.11  5064.22  3.0  0.1  1  1  ITEM6
SDECW261.76    14  644.17  5064.36  3.0  0.1  1  1  ITEM6
SDECW262.08    14  760.49  5064.32  3.0  0.1  1  1  ITEM6
SDECW262.79    14 1020.42  5064.11  3.0  0.1  1  1  ITEM6
SDECW263.04    14 1110.74  5063.98  3.0  0.1  1  1  ITEM6
SDECW263.66    14 1337.80  5064.41  3.0  0.1  1  1  ITEM6
SDECW264.06    14 1483.99  5063.45  3.0  0.1  1  1  ITEM6
SDECW264.67    14 1705.05  5059.02  3.0  0.1  1  1  ITEM6
SDECW265.15    15   56.43  5063.93  3.0  0.1  1  1  ITEM6
SDECW265.74    15  271.49  5058.72  3.0  0.1  1  1  ITEM6
SDECW266.11    15  406.68  5063.29  3.0  0.1  1  1  ITEM6
SDECW266.72    15  628.74  5063.77  3.0  0.1  1  1  ITEM6
SDECW267.03    15  741.49  5063.66  3.0  0.1  1  1  ITEM6
SDECW268.05    15 1113.74  5063.45  3.0  0.1  1  1  ITEM6
SDECW269.04    15 1473.99  5064.59  3.0  0.1  1  1  ITEM6
SDECW270.06    16   20.99  5061.49  3.0  0.1  1  1  ITEM6
SDECW271.04    16  379.24  5062.55  3.0  0.1  1  1  ITEM6
SDECW272.08    16  761.49  5064.30  3.0  0.1  1  1  ITEM6
SDECW273.01    16 1099.74  5064.15  3.0  0.1  1  1  ITEM6
SDECW274.06    16 1482.99  5061.68  3.0  0.1  1  1  ITEM6
SDECW275.06    17   22.99  5063.83  3.0  0.1  1  1  ITEM6
SDECW277.03    19   11.99  5063.78  3.0  0.1  1  1  ITEM6
SDECW278.08    20   30.99  5063.38  3.0  0.1  1  1  ITEM6
SDECW280.08    22   27.99  5060.70  3.0  0.1  1  1  ITEM6
SDECW281.10    23   35.43  5063.34  3.0  0.1  1  1  ITEM6
SDECW281.20    23   71.86  5055.87  3.0  0.1  1  1  ITEM6
SDECW285.49    27  180.18  5061.60  3.0  0.1  1  1  ITEM6
SDECW285.60    27  218.05  5060.92  3.0  0.1  1  1  ITEM6
SDECW285.65    27  239.05  5062.38  3.0  0.1  1  1  ITEM6
SDECW285.74    27  269.49  5062.26  3.0  0.1  1  1  ITEM6
SDECW285.83    27  302.92  5062.44  3.0  0.1  1  1  ITEM6
SDECW285.91    27  331.36  5062.13  3.0  0.1  1  1  ITEM6
SDECW286.00    28    0.55  5062.30  3.0  0.1  1  1  ITEM6
SDECW286.08    28   27.99  5062.61  3.0  0.1  1  1  ITEM6
SDECW286.25    28   92.30  5062.36  3.0  0.1  1  1  ITEM6
SDECW286.41    28  150.74  5062.30  3.0  0.1  1  1  ITEM6
SDECW286.58    28  213.61  5060.60  3.0  0.1  1  1  ITEM6
SDECW286.75    28  272.49  5059.04  3.0  0.1  1  1  ITEM6
SDECW289.72    31  261.49  5062.23  3.0  0.1  1  1  ITEM6
SDECW289.91    31  332.36  5062.33  3.0  0.1  1  1  ITEM6
SDECW290.03    32   11.99  5062.50  3.0  0.1  1  1  ITEM6
SDECW290.06    32   21.99  5062.21  3.0  0.1  1  1  ITEM6
SDECW290.10    32   37.43  5062.68  3.0  0.1  1  1  ITEM6
SDECW290.19    32   67.87  5062.39  3.0  0.1  1  1  ITEM6
SDECW290.26    33   22.06  5062.71  3.0  0.1  1  1  ITEM6
SDECW290.36    33   55.49  5062.70  3.0  0.1  1  1  ITEM6
SDECW290.44    33   84.93  5062.48  3.0  0.1  1  1  ITEM6
SDECW290.51    33  113.36  5062.44  3.0  0.1  1  1  ITEM6
SDECW290.60    33  145.80  5062.55  3.0  0.1  1  1  ITEM6
SDECW290.69    33  176.24  5062.53  3.0  0.1  1  1  ITEM6
SDECW290.76    33  203.68  5062.18  3.0  0.1  1  1  ITEM6
SDECW290.83    34    0.68  5062.55  3.0  0.1  1  1  ITEM6
SDECW290.93    34   35.55  5062.66  3.0  0.1  1  1  ITEM6
SDECW291.02    34   68.99  5063.11  3.0  0.1  1  1  ITEM6
SDECW291.10    34   98.43  5062.52  3.0  0.1  1  1  ITEM6
SDECW291.19    34  128.87  5062.32  3.0  0.1  1  1  ITEM6
SDECW291.26    35   20.06  5062.32  3.0  0.1  1  1  ITEM6
SDECW291.34    35   48.49  5062.11  3.0  0.1  1  1  ITEM6
SDECW291.42    35   80.93  5062.17  3.0  0.1  1  1  ITEM6
SDECW291.53    35  118.36  5061.54  3.0  0.1  1  1  ITEM6
SDECW291.68    35  173.24  5062.15  3.0  0.1  1  1  ITEM6
SDECW291.77    35  208.68  5062.01  3.0  0.1  1  1  ITEM6
SDECW292.03    36   70.99  5061.77  3.0  0.1  1  1  ITEM6
SDECW292.10    36   98.43  5062.01  3.0  0.1  1  1  ITEM6
SDECW292.17    36  123.87  5061.95  3.0  0.1  1  1  ITEM6
SDECW292.24    37   13.62  5062.11  3.0  0.1  1  1  ITEM6
SDECW292.42    37   79.93  5061.81  3.0  0.1  1  1  ITEM6
SDECW292.52    37  115.36  5059.50  3.0  0.1  1  1  ITEM6
SDECW292.67    37  172.24  5061.66  3.0  0.1  1  1  ITEM6
SDECW292.76    37  204.68  5061.65  3.0  0.1  1  1  ITEM6
SDECW292.83    37  229.68  5061.68  3.0  0.1  1  1  ITEM6
SDECW292.92    38   32.55  5061.80  3.0  0.1  1  1  ITEM6
SDECW293.11    38   99.43  5061.76  3.0  0.1  1  1  ITEM6
SDECW293.27    39   24.06  5061.57  3.0  0.1  1  1  ITEM6
SDECW293.35    39   52.49  5061.52  3.0  0.1  1  1  ITEM6
SDECW293.44    39   85.93  5061.48  3.0  0.1  1  1  ITEM6
SDECW293.49    39  105.93  5061.52  3.0  0.1  1  1  ITEM6
SDECW293.60    39  143.80  5061.42  3.0  0.1  1  1  ITEM6
SDECW293.71    39  186.24  5061.40  3.0  0.1  1  1  ITEM6
SDECW293.78    39  211.68  5061.35  3.0  0.1  1  1  ITEM6
SDECW293.84    40    2.11  5061.12  3.0  0.1  1  1  ITEM6
SDECW293.94    40   38.55  5061.30  3.0  0.1  1  1  ITEM6
SDECW294.12    40  105.43  5061.33  3.0  0.1  1  1  ITEM6
SDECW294.35    41   52.49  5061.15  3.0  0.1  1  1  ITEM6
SDECW295.11    42  101.43  5060.62  3.0  0.1  1  1  ITEM6
SDECW200.07    52   87.99  5059.20  3.0  0.1  1  1  ITEM6
  SDECW1        2   50   53  -58   0.000   0.144  -0.224     0.00 0.0  0  0  ITEM3
   1        ITEM5
SDECW157.07    13  755.49  4995.02  3.0  0.1  1  1  ITEM6
SDECW157.36    13  862.24  4990.00  3.0  0.1  1  1  ITEM6
SDECW157.61    13  953.55  4996.45  3.0  0.1  1  1  ITEM6
SDECW158.08    13 1125.74  4995.99  3.0  0.1  1  1  ITEM6
SDECW158.89    13 1421.11  4994.75  3.0  0.1  1  1  ITEM6
SDECW158.96    13 1445.55  4994.56  3.0  0.1  1  1  ITEM6
SDECW159.07    13 1486.99  4994.80  3.0  0.1  1  1  ITEM6
SDECW159.43    13 1617.18  4994.80  3.0  0.1  1  1  ITEM6
SDECW159.52    13 1651.61  4994.25  3.0  0.1  1  1  ITEM6
SDECW159.70    13 1715.49  4994.55  3.0  0.1  1  1  ITEM6
SDECW159.77    13 1742.92  4994.70  3.0  0.1  1  1  ITEM6
SDECW159.92    13 1797.80  4994.58  3.0  0.1  1  1  ITEM6
SDECW160.02    14    5.99  4994.62  3.0  0.1  1  1  ITEM6
SDECW160.27    14   97.30  4994.60  3.0  0.1  1  1  ITEM6
SDECW160.35    14  127.74  4994.36  3.0  0.1  1  1  ITEM6
SDECW160.68    14  249.49  4994.01  3.0  0.1  1  1  ITEM6
SDECW160.80    14  291.92  4994.50  3.0  0.1  1  1  ITEM6
SDECW160.86    14  314.36  4994.34  3.0  0.1  1  1  ITEM6
SDECW160.95    14  346.80  4994.44  3.0  0.1  1  1  ITEM6
SDECW161.07    14  390.24  4994.54  3.0  0.1  1  1  ITEM6
SDECW161.19    14  436.11  4994.01  3.0  0.1  1  1  ITEM6
SDECW161.52    14  554.86  4994.23  3.0  0.1  1  1  ITEM6
SDECW161.76    14  644.17  4994.67  3.0  0.1  1  1  ITEM6
SDECW162.08    14  760.49  4993.98  3.0  0.1  1  1  ITEM6
SDECW162.23    14  813.36  4992.85  3.0  0.1  1  1  ITEM6
SDECW162.55    14  931.11  4993.00  3.0  0.1  1  1  ITEM6
SDECW162.79    14 1020.42  4993.72  3.0  0.1  1  1  ITEM6
SDECW163.04    14 1110.74  4993.18  3.0  0.1  1  1  ITEM6
SDECW163.66    14 1337.80  4993.32  3.0  0.1  1  1  ITEM6
SDECW164.06    14 1483.99  4993.27  3.0  0.1  1  1  ITEM6
SDECW165.15    15   56.43  4980.52  3.0  0.1  1  1  ITEM6
SDECW165.74    15  271.49  4986.35  3.0  0.1  1  1  ITEM6
SDECW166.11    15  406.68  4991.83  3.0  0.1  1  1  ITEM6
SDECW167.08    15  758.49  4994.90  3.0  0.1  1  1  ITEM6
SDECW168.05    15 1113.74  4988.95  3.0  0.1  1  1  ITEM6
SDECW169.04    15 1473.99  4983.80  3.0  0.1  1  1  ITEM6
SDECW170.06    16   20.99  4990.00  3.0  0.1  1  1  ITEM6
SDECW171.04    16  379.24  4989.22  3.0  0.1  1  1  ITEM6
SDECW172.08    16  761.49  4977.52  3.0  0.1  1  1  ITEM6
SDECW174.06    16 1482.99  4987.40  3.0  0.1  1  1  ITEM6
SDECW175.06    17   22.99  4985.98  3.0  0.1  1  1  ITEM6
SDECW177.03    19   11.99  4985.58  3.0  0.1  1  1  ITEM6
SDECW180.08    22   27.99  4970.50  3.0  0.1  1  1  ITEM6
SDECW181.17    23   61.86  4967.20  3.0  0.1  1  1  ITEM6
SDECW181.20    23   71.86  4967.20  3.0  0.1  1  1  ITEM6
SDECW185.07    27   23.99  4966.21  3.0  0.1  1  1  ITEM6
SDECW185.49    27  180.18  4959.11  3.0  0.1  1  1  ITEM6
SDECW185.60    27  218.05  4961.52  3.0  0.1  1  1  ITEM6
SDECW185.68    27  249.49  4958.80  3.0  0.1  1  1  ITEM6
SDECW185.74    27  269.49  4959.72  3.0  0.1  1  1  ITEM6
SDECW185.83    27  302.92  4961.42  3.0  0.1  1  1  ITEM6
SDECW185.91    27  331.36  4963.30  3.0  0.1  1  1  ITEM6
SDECW186.00    28    0.55  4964.03  3.0  0.1  1  1  ITEM6
SDECW186.08    28   27.99  4964.15  3.0  0.1  1  1  ITEM6
SDECW186.25    28   92.30  4963.31  3.0  0.1  1  1  ITEM6
SDECW186.58    28  213.61  4963.28  3.0  0.1  1  1  ITEM6
SDECW186.75    28  272.49  4961.55  3.0  0.1  1  1  ITEM6
SDECW187.12    29   43.43  4965.41  3.0  0.1  1  1  ITEM6
  WM2           5   55   30  -89   0.000   0.416   0.369     0.00 0.0  0  0  ITEM3
   1        ITEM5
WM282.07       24   24.99  4946.60  3.0  0.1  1  1  ITEM6
WM282.25       24   89.86  4939.90  3.0  0.1  1  1  ITEM6
WM282.40       24  145.74  4939.50  3.0  0.1  1  1  ITEM6
WM282.46       24  168.18  4949.00  3.0  0.1  1  1  ITEM6
WM282.50       24  181.18  4949.00  3.0  0.1  1  1  ITEM6
WM282.58       24  211.61  4949.00  3.0  0.1  1  1  ITEM6
WM282.70       24  257.49  4947.00  3.0  0.1  1  1  ITEM6
WM282.90       24  328.36  4946.00  3.0  0.1  1  1  ITEM6
WM282.96       24  351.80  4946.00  3.0  0.1  1  1  ITEM6
WM283.08       25   27.99  4947.00  3.0  0.1  1  1  ITEM6
WM283.15       25   55.43  4947.00  3.0  0.1  1  1  ITEM6
WM283.25       25   89.86  4947.00  3.0  0.1  1  1  ITEM6
WM283.32       25  116.30  4946.80  3.0  0.1  1  1  ITEM6
WM283.33       25  119.30  4946.80  3.0  0.1  1  1  ITEM6
WM283.34       25  123.74  4946.70  3.0  0.1  1  1  ITEM6
WM283.36       25  130.74  4946.70  3.0  0.1  1  1  ITEM6
WM283.44       25  162.18  4946.50  3.0  0.1  1  1  ITEM6
WM283.54       25  198.61  4946.00  3.0  0.1  1  1  ITEM6
WM283.75       25  272.49  4944.00  3.0  0.1  1  1  ITEM6
WM283.82       25  298.92  4944.00  3.0  0.1  1  1  ITEM6
WM283.89       25  326.36  4945.00  3.0  0.1  1  1  ITEM6
WM284.03       26   11.99  4945.30  3.0  0.1  1  1  ITEM6
WM284.07       26   26.99  4945.00  3.0  0.1  1  1  ITEM6
WM284.14       26   52.43  4946.70  3.0  0.1  1  1  ITEM6
WM284.22       26   79.86  4945.90  3.0  0.1  1  1  ITEM6
WM284.26       26   93.30  4945.00  3.0  0.1  1  1  ITEM6
WM284.53       26  192.61  4945.22  3.0  0.1  1  1  ITEM6
WM284.55       26  199.61  4945.11  3.0  0.1  1  1  ITEM6
WM284.64       26  235.05  4944.72  3.0  0.1  1  1  ITEM6
WM285.12       27   42.43  4945.35  3.0  0.1  1  1  ITEM6
WM285.19       27   67.86  4945.58  3.0  0.1  1  1  ITEM6
WM285.26       27   96.30  4945.78  3.0  0.1  1  1  ITEM6
WM285.52       27  190.61  4944.62  3.0  0.1  1  1  ITEM6
WM285.62       27  227.05  4943.68  3.0  0.1  1  1  ITEM6
WM285.67       27  243.05  4943.36  3.0  0.1  1  1  ITEM6
WM285.76       27  277.92  4942.80  3.0  0.1  1  1  ITEM6
WM286.02       28    6.99  4935.80  3.0  0.1  1  1  ITEM6
WM286.07       28   25.99  4941.50  3.0  0.1  1  1  ITEM6
WM286.16       28   57.43  4943.25  3.0  0.1  1  1  ITEM6
WM286.26       28   94.30  4943.15  3.0  0.1  1  1  ITEM6
WM286.41       28  150.74  4943.32  3.0  0.1  1  1  ITEM6
WM286.58       28  213.61  4943.23  3.0  0.1  1  1  ITEM6
WM286.75       28  273.49  4943.37  3.0  0.1  1  1  ITEM6
WM286.98       28  357.80  4942.19  3.0  0.1  1  1  ITEM6
WM287.12       29   43.43  4942.79  3.0  0.1  1  1  ITEM6
WM287.18       29   66.86  4943.51  3.0  0.1  1  1  ITEM6
WM287.24       29   86.86  4943.39  3.0  0.1  1  1  ITEM6
WM287.32       29  115.30  4943.14  3.0  0.1  1  1  ITEM6
WM287.41       29  149.74  4943.08  3.0  0.1  1  1  ITEM6
WM287.48       29  175.18  4943.01  3.0  0.1  1  1  ITEM6
WM287.58       29  213.61  4941.55  3.0  0.1  1  1  ITEM6
WM287.83       29  301.92  4941.11  3.0  0.1  1  1  ITEM6
WM287.90       29  329.36  4941.27  3.0  0.1  1  1  ITEM6
WM287.98       29  356.80  4940.98  3.0  0.1  1  1  ITEM6
WM288.09       30   31.43  4941.32  3.0  0.1  1  1  ITEM6
WM288.25       30   89.86  4941.59  3.0  0.1  1  1  ITEM6
WM288.33       30  119.30  4941.51  3.0  0.1  1  1  ITEM6
WM288.40       30  144.74  4941.87  3.0  0.1  1  1  ITEM6
WM288.49       30  180.18  4941.55  3.0  0.1  1  1  ITEM6
WM288.57       30  207.61  4941.63  3.0  0.1  1  1  ITEM6
WM288.67       30  243.05  4941.83  3.0  0.1  1  1  ITEM6
WM288.83       30  304.92  4941.60  3.0  0.1  1  1  ITEM6