                                  MODFLOW-2000
      U.S. GEOLOGICAL SURVEY MODULAR FINITE-DIFFERENCE GROUND-WATER FLOW MODEL
                           VERSION 1.19.01 03/25/2010


 This model run produced both GLOBAL and LIST files.  This is the GLOBAL file.

 GLOBAL LISTING FILE: mrgb.glb
                         UNIT   11

 OPENING mrgb.lst
 FILE TYPE:LIST   UNIT   12   STATUS:REPLACE
 FORMAT:FORMATTED              ACCESS:SEQUENTIAL          

 OPENING mrgb.dis
 FILE TYPE:DIS   UNIT   13   STATUS:OLD    
 FORMAT:FORMATTED              ACCESS:SEQUENTIAL          

 OPENING mrgb.bs6
 FILE TYPE:BAS6   UNIT   14   STATUS:OLD    
 FORMAT:FORMATTED              ACCESS:SEQUENTIAL          

 OPENING mrgb.lpf
 FILE TYPE:LPF   UNIT   15   STATUS:OLD    
 FORMAT:FORMATTED              ACCESS:SEQUENTIAL          

 OPENING mrgb.hb6
 FILE TYPE:HFB6   UNIT   16   STATUS:OLD    
 FORMAT:FORMATTED              ACCESS:SEQUENTIAL          

 OPENING mrgb.ets
 FILE TYPE:ETS   UNIT   17   STATUS:OLD    
 FORMAT:FORMATTED              ACCESS:SEQUENTIAL          

 OPENING mrgb.rch
 FILE TYPE:RCH   UNIT   18   STATUS:OLD    
 FORMAT:FORMATTED              ACCESS:SEQUENTIAL          

 OPENING mrgb.wel
 FILE TYPE:WEL   UNIT   19   STATUS:OLD    
 FORMAT:FORMATTED              ACCESS:SEQUENTIAL          

 OPENING mrgb.riv
 FILE TYPE:RIV   UNIT   20   STATUS:OLD    
 FORMAT:FORMATTED              ACCESS:SEQUENTIAL          

 OPENING mrgb.drn
 FILE TYPE:DRN   UNIT   21   STATUS:OLD    
 FORMAT:FORMATTED              ACCESS:SEQUENTIAL          

 OPENING mrgb.oc
 FILE TYPE:OC   UNIT   22   STATUS:OLD    
 FORMAT:FORMATTED              ACCESS:SEQUENTIAL          

 OPENING mrgb.pcg
 FILE TYPE:PCG   UNIT   30   STATUS:OLD    
 FORMAT:FORMATTED              ACCESS:SEQUENTIAL          

 OPENING zones
 FILE TYPE:ZONE   UNIT   31   STATUS:OLD    
 FORMAT:FORMATTED              ACCESS:SEQUENTIAL          

 OPENING mults
 FILE TYPE:MULT   UNIT   32   STATUS:OLD    
 FORMAT:FORMATTED              ACCESS:SEQUENTIAL          

 OPENING mrgb.obs
 FILE TYPE:OBS   UNIT   33   STATUS:OLD    
 FORMAT:FORMATTED              ACCESS:SEQUENTIAL          

 OPENING mrgb.hob
 FILE TYPE:HOB   UNIT   34   STATUS:OLD    
 FORMAT:FORMATTED              ACCESS:SEQUENTIAL          

 OPENING mrgb.rob
 FILE TYPE:RVOB   UNIT   35   STATUS:OLD    
 FORMAT:FORMATTED              ACCESS:SEQUENTIAL          

 OPENING cbcbud
 FILE TYPE:DATA(BINARY)   UNIT   50   STATUS:UNKNOWN
 FORMAT:UNFORMATTED            ACCESS:STREAM              

 OPENING sim._os
 FILE TYPE:DATA   UNIT   53   STATUS:UNKNOWN
 FORMAT:FORMATTED              ACCESS:SEQUENTIAL          


 DISCRETIZATION INPUT DATA READ FROM UNIT   13
 # Discretization file
    9 LAYERS       156 ROWS        80 COLUMNS
   52 STRESS PERIOD(S) IN SIMULATION
 MODEL TIME UNIT IS DAYS
 MODEL LENGTH UNIT IS FEET
 THE GROUND-WATER TRANSPORT PROCESS IS INACTIVE

 THE OBSERVATION PROCESS IS ACTIVE
 THE SENSITIVITY PROCESS IS INACTIVE
 THE PARAMETER-ESTIMATION PROCESS IS INACTIVE

 MODE: FORWARD WITH OBSERVATIONS


 ZONE OPTION, INPUT READ FROM UNIT   31
 # ZONE file for MF2000
    29 ZONE ARRAYS

 MULTIPLIER OPTION, INPUT READ FROM UNIT   32
 # Multiplier File for MF2000
  26 MULTIPLIER ARRAYS
  Confining bed flag for each layer:
   0   0   0   0   0   0   0   0   0

    1335596  ELEMENTS OF GX ARRAY USED OUT OF    1335596
     112320  ELEMENTS OF GZ ARRAY USED OUT OF     112320
     474240  ELEMENTS OF IG ARRAY USED OUT OF     474240

                     DELR =   3280.84    

                     DELC =   3280.84    

 OPENING FILE ON UNIT   99:
 arrays/TOP1.arr                                                                                                                                                                                         



           TOP ELEVATION OF LAYER 1
 READING ON UNIT   99 WITH FORMAT: (8F10.1)            

           1       2       3       4       5       6       7       8       9      10      11      12      13      14      15
          16      17      18      19      20      21      22      23      24      25      26      27      28      29      30
          31      32      33      34      35      36      37      38      39      40      41      42      43      44      45
          46      47      48      49      50      51      52      53      54      55      56      57      58      59      60
          61      62      63      64      65      66      67      68      69      70      71      72      73      74      75
          76      77      78      79      80
 ...........................................................................................................................
   1   -999.0  -999.0  -999.0  -999.0  -999.0  -999.0  -999.0  -999.0  -999.0  -999.0  -999.0  -999.0  -999.0  -999.0  -999.0
       -999.0  -999.0  -999.0  -999.0  -999.0  -999.0  -999.0  -999.0  -999.0  -999.0  -999.0  -999.0  -999.0  -999.0  -999.0
       -999.0  -999.0  -999.0  -999.0  -999.0  -999.0  -999.0  -999.0  -999.0  -999.0  -999.0  -999.0  -999.0  -999.0  -999.0
       -999.0  -999.0  -999.0  -999.0  -999.0  -999.0  -999.0  -999.0  -999.0  -999.0  -999.0  -999.0  6341.5  6336.8  6331.6
       6325.4  6315.9  6297.7  6270.2  6266.6  6262.0  6255.9  6255.1  6255.8  6258.1  6262.8  6264.6  6264.2  6258.4  -999.0
       -999.0  -999.0  -999.0  -999.0  -999.0
   2   -999.0  -999.0  -999.0  -999.0  -999.0  -999.0  -999.0  -999.0  -999.0  -999.0  -999.0  -999.0  -999.0  -999.0  -999.0
       -999.0  -999.0  -999.0  -999.0  -999.0  -999.0  -999.0  -999.0  -999.0  -999.0  -999.0  -999.0  -999.0  -999.0  -999.0
       -999.0  -999.0  -999.0  -999.0  -999.0  -999.0  -999.0  -999.0  -999.0  -999.0  -999.0  -999.0  -999.0  -999.0  -999.0
       -999.0  -999.0  -999.0  -999.0  -999.0  -999.0  -999.0  -999.0  -999.0  -999.0  6328.5  6321.7  6299.7  6292.1  6286.9
       6281.4  6274.2  6263.5  6254.6  6252.3  6249.4  6247.5  6247.4  6248.0  6249.7  6251.0  6251.2  6249.4  6256.9  6268.8
       -999.0  -999.0  -999.0  -999.0  -999.0
   3   -999.0  -999.0  -999.0  -999.0  -999.0  -999.0  -999.0  -999.0  -999.0  -999.0  -999.0  -999.0  -999.0  -999.0  -999.0
       -999.0  -999.0  -999.0  -999.0  -999.0  -999.0  -999.0  -999.0  -999.0  -999.0  -999.0  -999.0  -999.0  -999.0  -999.0
       -999.0  -999.0  6628.2  6644.1  -999.0  -999.0  -999.0  -999.0  -999.0  -999.0  -999.0  -999.0  -999.0  -999.0  -999.0
       -999.0  -999.0  -999.0  -999.0  -999.0  -999.0  -999.0  -999.0  -999.0  6303.5  6285.7  6279.2  6271.9  6267.0  6262.9
       6258.6  6253.6  6247.7  6244.3  6242.9  6241.3  6241.4  6241.8  6242.6  6243.5  6244.1  6243.5  6242.5  6253.6  6266.7
       -999.0  -999.0  -999.0  -999.0  -999.0
   4   -999.0  -999.0  -999.0  -999.0  -999.0  -999.0  -999.0  -999.0  -999.0  -999.0  -999.0  -999.0  -999.0  -999.0  -999.0
       -999.0  -999.0  -999.0  -999.0  -999.0  -999.0  -999.0  -999.0  -999.0  -999.0  -999.0  -999.0  -999.0  -999.0  -999.0
       -999.0  -999.0  6609.0  6604.9  6581.0  -999.0  -999.0  -999.0  -999.0  -999.0  -999.0  -999.0  -999.0  -999.0  -999.0
       -999.0  -999.0  -999.0  -999.0  -999.0  -999.0  -999.0  -999.0  6253.2  6260.5  6258.4  6255.6  6252.2  6249.0  6245.8
       6242.1  6238.7  6235.1  6235.9  6235.6  6235.0  6236.0  6236.9  6238.1  6238.4  6238.5  6236.3  6241.9  6249.8  6261.4
       6293.6  -999.0  -999.0  -999.0  -999.0
   5   -999.0  -999.0  -999.0  -999.0  -999.0  -999.0  -999.0  -999.0  -999.0  -999.0  -999.0  -999.0  -999.0  -999.0  -999.0
       -999.0  -999.0  -999.0  -999.0  -999.0  -999.0  -999.0  -999.0  -999.0  -999.0  -999.0  -999.0  -999.0  -999.0  -999.0
       -999.0  -999.0  6587.5  6580.8  6564.8  6612.2  -999.0  -999.0  -999.0  -999.0  -999.0  -999.0  -999.0  -999.0  -999.0
       -999.0  -999.0  -999.0  -999.0  -999.0  -999.0  -999.0  -999.0  6244.7  6242.6  6241.2  6239.4  6237.1  6234.0  6231.1
       6228.1  6226.3  6225.8  6228.3  6229.3  6230.1  6230.9  6231.9  6233.2  6233.5  6233.4  6232.2  6238.8  6245.2  6259.6
       6292.9  -999.0  -999.0  -999.0  -999.0
   6   -999.0  -999.0  -999.0  -999.0  -999.0  -999.0  -999.0  -999.0  -999.0  -999.0  -999.0  -999.0  -999.0  -999.0  -999.0
       -999.0  -999.0  -999.0  -999.0  -999.0  -999.0  -999.0  -999.0  -999.0  -999.0  -999.0  -999.0  -999.0  -999.0  -999.0
       -999.0  -999.0  6565.4  6558.2  6548.1  6593.6  6628.3  6642.2  -999.0  -999.0  -999.0  -999.0  -999.0  -999.0  -999.0
       -999.0  -999.0  -999.0  -999.0  -999.0  -999.0  -999.0  -999.0  6235.1  6230.5  6228.4  6226.6  6224.1  6220.9  6219.6
       6219.6  6219.4  6221.1  6222.4  6223.3  6224.9  6226.0  6227.0  6227.8  6228.0  6228.0  6227.8  6236.3  6241.7  6253.9
       6274.9  6303.3  -999.0  -999.0  -999.0
   7   -999.0  -999.0  -999.0  -999.0  -999.0  -999.0  -999.0  -999.0  -999.0  -999.0  -999.0  -999.0  -999.0  -999.0  -999.0
       -999.0  -999.0  -999.0  -999.0  -999.0  -999.0  -999.0  -999.0  -999.0  -999.0  -999.0  -999.0  -999.0  -999.0  -999.0
       -999.0  -999.0  6542.7  6525.3  6536.9  6579.7  6603.4  6618.9  6639.3  -999.0  -999.0  -999.0  -999.0  -999.0  -999.0
       -999.0  -999.0  -999.0  -999.0  -999.0  -999.0  -999.0  -999.0  6225.3  6219.7  6217.3  6215.0  6212.9  6212.3  6212.7
       6213.1  6214.1  6215.9  6217.2  6218.1  6219.7  6221.1  6222.5  6222.8  6222.3  6222.1  6228.7  6234.8  6240.4  6251.0
       6266.2  6284.0  -999.0  -999.0  -999.0
   8   -999.0  -999.0  -999.0  -999.0  -999.0  -999.0  -999.0  -999.0  -999.0  -999.0  -999.0  -999.0  -999.0  -999.0  -999.0
       -999.0  -999.0  -999.0  -999.0  -999.0  -999.0  -999.0  -999.0  -999.0  -999.0  -999.0  -999.0  -999.0  -999.0  -999.0
       -999.0  -999.0  6524.2  6511.6  6538.5  6572.2  6591.6  6604.6  6619.0  6641.5  6649.5  -999.0  -999.0  -999.0  -999.0
       -999.0  -999.0  -999.0  -999.0  -999.0  -999.0  -999.0  -999.0  6214.6  6209.1  6207.1  6205.4  6205.3  6205.5  6205.9
       6206.3  6207.9  6210.2  6212.1  6213.6  6214.9  6216.1  6217.4  6217.2  6216.3  6218.3  6225.9  6232.0  6239.6  6250.6
       6262.8  6275.7  6290.0  -999.0  -999.0
   9   -999.0  -999.0  -999.0  -999.0  -999.0  -999.0  -999.0  -999.0  -999.0  -999.0  -999.0  -999.0  -999.0  -999.0  -999.0
       -999.0  -999.0  -999.0  -999.0  -999.0  -999.0  -999.0  -999.0  -999.0  -999.0  -999.0  -999.0  -999.0  -999.0  -999.0
       -999.0  6497.5  6504.4  6509.1  6519.4  6552.8  6587.2  6594.5  6604.9  6617.7  6624.0  6639.0  6643.3  6644.2  -999.0
       -999.0  -999.0  -999.0  -999.0  -999.0  -999.0  -999.0  -999.0  6204.1  6202.0  6200.5  6199.8  6199.7  6200.2  6200.9
       6201.5  6203.3  6205.2  6206.8  6208.8  6210.1  6211.2  6211.6  6211.3  6212.7  6217.8  6223.6  6230.0  6239.0  6251.0
       6263.4  6275.1  6287.5  6304.4  -999.0
  10   -999.0  -999.0  -999.0  -999.0  -999.0  -999.0  -999.0  -999.0  -999.0  -999.0  -999.0  -999.0  -999.0  -999.0  -999.0
       -999.0  -999.0  -999.0  -999.0  -999.0  -999.0  -999.0  -999.0  -999.0  -999.0  -999.0  -999.0  -999.0  -999.0  -999.0
       6485.7  6489.7  6498.8  6496.2  6504.4  6511.6  6538.9  6554.4  6563.4  6578.9  6608.2  6613.9  6616.5  6616.7  6617.9
       6616.1  -999.0  -999.0  -999.0  -999.0  -999.0  -999.0  -999.0  6198.6  6196.7  6195.4  6195.0  6194.9  6195.2  6196.1
       6197.4  6199.0  6200.8  6202.1  6203.9  6205.4  6206.7  6206.2  6207.4  6210.4  6215.7  6220.9  6228.8  6240.1  6253.4
       6269.1  6278.9  6290.0  6306.7  -999.0
  11   -999.0  -999.0  -999.0  -999.0  -999.0  -999.0  -999.0  -999.0  -999.0  -999.0  -999.0  -999.0  -999.0  -999.0  -999.0
       -999.0  -999.0  -999.0  -999.0  -999.0  -999.0  -999.0  -999.0  -999.0  -999.0  -999.0  -999.0  -999.0  -999.0  -999.0
       6479.1  6486.3  6473.4  6472.4  6475.5  6470.8  6478.6  6491.9  6499.4  6505.8  6537.8  6557.8  6565.7  6574.1  6587.1
       6584.8  6428.3  -999.0  -999.0  -999.0  -999.0  -999.0  6197.5  6194.5  6192.4  6191.1  6190.3  6190.2  6190.6  6191.4
       6193.0  6194.6  6196.3  6197.9  6199.3  6200.6  6201.6  6201.4  6203.1  6207.3  6212.7  6218.3  6227.2  6240.5  6257.6
       6297.4  6288.5  6295.8  6310.4  6340.9
  12   -999.0  -999.0  -999.0  -999.0  -999.0  -999.0  -999.0  -999.0  -999.0  -999.0  -999.0  -999.0  -999.0  -999.0  -999.0
       -999.0  -999.0  -999.0  -999.0  -999.0  -999.0  -999.0  -999.0  -999.0  -999.0  -999.0  -999.0  -999.0  -999.0  -999.0
       6466.9  6471.1  6452.9  6448.4  6442.3  6438.6  6440.9  6447.0  6451.6  6454.9  6460.4  6475.5  6487.3  6497.1  6515.6
       6505.0  6391.9  -999.0  -999.0  -999.0  -999.0  -999.0  6194.5  6190.5  6188.0  6186.7  6186.2  6186.0  6186.3  6186.8
       6188.4  6189.9  6191.4  6193.3  6194.7  6196.0  6196.8  6195.8  6199.1  6203.6  6209.4  6216.0  6225.6  6239.1  6254.5
       6275.9  6313.7  6306.1  6318.1  6342.5
  13   -999.0  -999.0  -999.0  -999.0  -999.0  -999.0  -999.0  -999.0  -999.0  -999.0  -999.0  -999.0  -999.0  -999.0  -999.0
       -999.0  -999.0  -999.0  -999.0  -999.0  -999.0  -999.0  -999.0  -999.0  -999.0  -999.0  -999.0  -999.0  -999.0  -999.0
       6453.6  6441.9  6434.0  6424.9  6416.1  6410.9  6409.4  6409.7  6411.5  6414.1  6415.5  6416.8  6423.1  6428.0  6428.1
       6412.0  6326.0  6304.4  -999.0  -999.0  -999.0  -999.0  6189.9  6186.2  6184.2  6182.9  6182.2  6181.8  6181.7  6182.7
       6183.9  6185.4  6186.7  6188.6  6190.2  6191.9  6193.0  6193.5  6193.0  6199.2  6205.2  6213.8  6224.9  6237.2  6251.0
       6267.6  6289.9  6330.6  6327.9  6348.3
  14   -999.0  -999.0  -999.0  -999.0  -999.0  -999.0  -999.0  -999.0  -999.0  -999.0  -999.0  -999.0  -999.0  -999.0  -999.0
       -999.0  -999.0  -999.0  -999.0  -999.0  -999.0  -999.0  -999.0  -999.0  -999.0  -999.0  -999.0  -999.0  -999.0  6441.7
       6445.8  6425.2  6414.2  6403.2  6393.2  6386.1  6382.7  6381.8  6381.6  6381.4  6381.3  6377.7  6375.1  6374.3  6368.6
       6351.3  6280.9  6262.3  6240.9  6222.3  6203.4  6189.1  6185.1  6182.4  6180.4  6179.0  6178.1  6177.7  6177.6  6178.6
       6179.8  6181.2  6182.8  6184.1  6185.5  6187.2  6188.2  6188.8  6186.9  6195.2  6202.1  6211.4  6223.1  6234.9  6247.4
       6261.7  6279.2  6303.8  6349.9  6382.0
  15   -999.0  -999.0  -999.0  -999.0  -999.0  -999.0  -999.0  -999.0  -999.0  -999.0  -999.0  -999.0  -999.0  -999.0  -999.0
       -999.0  -999.0  -999.0  -999.0  -999.0  -999.0  -999.0  -999.0  -999.0  -999.0  -999.0  -999.0  -999.0  -999.0  6433.7
       6435.5  6409.6  6396.8  6386.1  6375.9  6368.5  6364.2  6362.0  6360.3  6358.0  6354.5  6349.0  6342.5  6335.4  6326.5
       6309.1  6247.9  6231.9  6212.3  6198.4  6187.8  6184.3  6181.1  6178.5  6176.4  6175.1  6174.2  6173.8  6174.0  6174.7
       6175.7  6176.8  6178.5  6179.7  6180.9  6181.6  6182.6  6183.9  6182.1  6191.2  6200.0  6210.5  6221.3  6232.4  6244.0
       6256.5  6270.4  6286.7  6304.8  6345.8
  16   -999.0  -999.0  -999.0  -999.0  -999.0  -999.0  -999.0  -999.0  -999.0  -999.0  -999.0  -999.0  -999.0  -999.0  -999.0
       -999.0  -999.0  -999.0  -999.0  -999.0  -999.0  -999.0  -999.0  -999.0  -999.0  -999.0  -999.0  -999.0  -999.0  6412.6
       6421.0  6396.8  6386.6  6374.4  6363.5  6355.6  6350.6  6347.1  6343.8  6339.6  6334.1  6327.0  6318.3  6308.8  6296.0
       6280.3  6221.8  6205.7  6193.5  6188.3  6184.0  6180.2  6177.0  6174.5  6172.6  6171.2  6170.2  6169.7  6170.2  6170.8
       6171.7  6172.6  6174.1  6175.4  6176.4  6176.4  6175.6  6179.3  6181.9  6188.8  6197.7  6208.8  6219.5  6230.1  6241.1
       6252.3  6264.1  6276.4  6289.5  6313.3
  17   -999.0  -999.0  -999.0  -999.0  -999.0  -999.0  -999.0  -999.0  -999.0  -999.0  -999.0  -999.0  -999.0  -999.0  -999.0
       -999.0  -999.0  -999.0  -999.0  -999.0  -999.0  -999.0  -999.0  -999.0  -999.0  -999.0  -999.0  -999.0  -999.0  6390.5
       6412.6  6410.4  6407.7  6373.9  6357.3  6347.2  6340.7  6335.5  6330.3  6324.4  6317.2  6308.6  6299.5  6289.2  6275.9
       6261.3  6200.3  6191.5  6188.1  6183.9  6179.8  6176.1  6173.1  6170.7  6168.7  6167.2  6166.1  6165.7  6166.2  6166.8
       6167.5  6168.8  6170.0  6171.1  6171.8  6172.5  6173.6  6176.9  6181.5  6187.4  6196.3  6207.4  6217.8  6228.2  6238.7
       6249.5  6260.5  6271.5  6283.0  6297.2
  18   -999.0  -999.0  -999.0  -999.0  -999.0  -999.0  -999.0  -999.0  -999.0  -999.0  -999.0  -999.0  -999.0  -999.0  -999.0
       -999.0  -999.0  -999.0  -999.0  -999.0  -999.0  -999.0  -999.0  -999.0  -999.0  -999.0  -999.0  -999.0  -999.0  6362.6
       6363.0  6364.5  6409.4  6402.0  6360.8  6344.0  6334.8  6327.1  6320.0  6312.4  6303.8  6294.3  6284.5  6273.7  6260.1
       6245.8  6188.7  6186.4  6183.0  6179.1  6175.3  6172.0  6169.1  6166.7  6164.7  6162.9  6162.2  6162.2  6162.4  6162.7
       6163.5  6164.8  6165.9  6167.0  6166.8  6167.1  6169.4  6174.7  6179.6  6186.8  6196.4  6206.5  6216.6  6226.7  6237.2
       6248.2  6259.6  6270.5  6281.4  6294.6
  19   -999.0  -999.0  -999.0  -999.0  -999.0  -999.0  -999.0  -999.0  -999.0  -999.0  -999.0  -999.0  -999.0  -999.0  -999.0
       -999.0  -999.0  -999.0  -999.0  -999.0  -999.0  -999.0  -999.0  -999.0  -999.0  -999.0  -999.0  -999.0  -999.0  6344.0
       6338.8  6338.4  6355.8  6392.6  6389.8  6348.9  6335.8  6323.2  6313.9  6304.7  6293.8  6282.6  6271.3  6259.2  6245.3
       6232.0  6184.3  6181.6  6178.2  6174.5  6171.0  6167.9  6165.1  6162.7  6160.5  6159.0  6158.6  6158.6  6158.8  6159.0
       6160.0  6161.0  6161.6  6161.3  6160.6  6155.8  6164.5  6171.9  6178.1  6185.9  6195.9  6205.8  6215.6  6225.7  6236.5
       6248.6  6262.8  6274.7  6285.4  6296.3
  20   -999.0  -999.0  -999.0  -999.0  -999.0  -999.0  -999.0  -999.0  -999.0  -999.0  -999.0  -999.0  -999.0  -999.0  -999.0
       -999.0  -999.0  -999.0  -999.0  -999.0  -999.0  -999.0  -999.0  -999.0  -999.0  -999.0  -999.0  -999.0  6314.6  6320.1
       6320.3  6321.6  6324.8  6334.0  6340.0  6376.1  6362.2  6326.0  6314.9  6304.5  6288.0  6273.6  6260.3  6247.1  6232.3
       6217.9  6180.3  6177.3  6173.8  6170.3  6166.9  6163.8  6161.0  6158.4  6156.3  6155.4  6155.0  6154.9  6154.9  6155.7
       6156.5  6157.2  6157.2  6153.7  6155.8  6151.1  6162.0  6168.9  6176.7  6186.1  6195.6  6205.2  6214.9  6225.0  6236.2
       6250.6  6281.1  6295.6  6306.8  6301.2
  21   -999.0  -999.0  -999.0  -999.0  -999.0  -999.0  -999.0  -999.0  -999.0  -999.0  -999.0  -999.0  -999.0  -999.0  -999.0
       -999.0  -999.0  -999.0  -999.0  -999.0  -999.0  -999.0  -999.0  -999.0  -999.0  -999.0  -999.0  -999.0  6306.4  6305.1
       6306.4  6305.8  6305.9  6308.0  6311.8  6323.7  6359.7  6351.2  6339.5  6333.4  6287.7  6267.2  6251.2  6236.0  6218.5
       6197.2  6177.7  6173.6  6169.8  6166.3  6162.9  6159.6  6156.6  6153.8  6152.1  6151.7  6151.3  6151.0  6151.2  6152.1
       6152.9  6153.5  6152.6  6148.2  6151.0  6155.0  6161.6  6168.0  6175.9  6185.9  6195.4  6204.9  6214.5  6224.4  6235.3
       6247.6  6262.6  6277.6  6305.2  6302.1
  22   -999.0  -999.0  -999.0  -999.0  -999.0  -999.0  -999.0  -999.0  -999.0  -999.0  -999.0  -999.0  -999.0  -999.0  -999.0
       -999.0  -999.0  -999.0  -999.0  -999.0  -999.0  -999.0  -999.0  -999.0  -999.0  -999.0  -999.0  -999.0  6301.8  6294.7
       6292.8  6290.7  6288.3  6288.0  6289.4  6293.4  6299.9  6300.1  6301.6  6325.5  6286.3  6262.9  6244.2  6226.8  6208.3
       6187.8  6174.0  6169.9  6166.1  6162.4  6158.8  6155.4  6152.1  6149.6  6148.6  6148.0  6147.6  6147.6  6148.0  6148.6
       6149.3  6148.9  6147.2  6146.6  6146.9  6154.0  6160.2  6167.3  6176.3  6185.8  6195.4  6204.9  6214.4  6224.2  6234.9
       6246.3  6258.4  6271.4  6289.8  -999.0
  23   -999.0  -999.0  -999.0  -999.0  -999.0  -999.0  -999.0  -999.0  -999.0  -999.0  -999.0  -999.0  -999.0  -999.0  -999.0
       -999.0  -999.0  -999.0  -999.0  -999.0  -999.0  -999.0  -999.0  -999.0  -999.0  -999.0  -999.0  -999.0  6294.7  6283.8
       6278.8  6272.8  6269.1  6269.6  6269.8  6271.0  6273.2  6275.0  6280.8  6312.5  6308.9  6265.3  6241.1  6220.9  6201.8
       6182.2  6170.1  6166.2  6162.3  6158.4  6154.6  6150.9  6147.5  6145.8  6144.8  6144.2  6144.1  6144.9  6144.6  6144.7
       6144.5  6141.9  6138.7  6141.2  6142.9  6151.2  6158.8  6167.0  6175.9  6185.8  6195.8  6205.6  6215.1  6224.6  6235.9
       6247.6  6259.0  6270.3  6339.7  -999.0
  24   -999.0  -999.0  -999.0  -999.0  -999.0  -999.0  -999.0  -999.0  -999.0  -999.0  -999.0  -999.0  -999.0  -999.0  -999.0
       -999.0  -999.0  -999.0  -999.0  -999.0  -999.0  -999.0  -999.0  -999.0  -999.0  -999.0  -999.0  -999.0  6289.5  6269.4
       6259.2  6253.8  6251.1  6251.6  6251.4  6251.7  6253.1  6254.7  6258.3  6268.7  6302.5  6285.9  6244.7  6218.2  6197.4
       6178.0  6166.5  6162.6  6158.5  6154.4  6150.3  6146.3  6143.1  6141.8  6140.7  6140.2  6140.2  6140.9  6140.8  6140.8
       6138.8  6134.1  6134.6  6139.1  6143.9  6150.3  6157.8  6165.5  6174.4  6185.9  6197.4  6207.9  6217.3  6225.6  6254.4
       6278.3  6295.2  6317.5  6390.7  -999.0
  25   -999.0  -999.0  -999.0  -999.0  -999.0  -999.0  -999.0  -999.0  -999.0  -999.0  -999.0  -999.0  -999.0  -999.0  -999.0
       -999.0  -999.0  -999.0  -999.0  -999.0  -999.0  -999.0  -999.0  -999.0  -999.0  -999.0  -999.0  -999.0  6258.0  6246.8
       6238.9  6236.7  6234.1  6233.5  6233.1  6233.4  6235.2  6236.4  6237.9  6241.8  6250.5  6276.3  6272.6  6219.0  6194.5
       6174.7  6163.2  6159.2  6154.9  6150.4  6145.9  6141.6  6139.1  6137.5  6136.2  6135.2  6135.8  6136.1  6136.7  6135.8
       6132.9  6128.5  6131.2  6137.9  6142.8  6148.8  6155.8  6162.8  6170.5  6191.3  6220.6  6239.6  6254.2  6272.8  6331.0
       6359.4  6377.3  6389.3  -999.0  -999.0
  26   -999.0  -999.0  -999.0  -999.0  -999.0  -999.0  -999.0  -999.0  -999.0  -999.0  -999.0  -999.0  -999.0  -999.0  -999.0
       -999.0  -999.0  -999.0  -999.0  -999.0  -999.0  -999.0  -999.0  -999.0  -999.0  -999.0  -999.0  -999.0  6233.0  6227.9
       6225.3  6221.4  6219.3  6218.9  6218.7  6218.8  6219.3  6219.9  6221.3  6219.3  6222.5  6230.9  6260.6  6217.3  6192.6
       6172.4  6160.9  6156.4  6151.5  6146.5  6141.4  6137.2  6135.0  6133.0  6131.0  6130.0  6129.9  6130.2  6131.2  6129.4
       6122.7  6129.1  6132.5  6137.0  6142.0  6147.7  6153.6  6159.8  6177.0  6213.7  6288.1  6319.6  6337.5  6348.7  -999.0
       -999.0  -999.0  -999.0  -999.0  -999.0
  27   -999.0  -999.0  -999.0  -999.0  -999.0  -999.0  -999.0  -999.0  -999.0  -999.0  -999.0  -999.0  -999.0  -999.0  -999.0
       -999.0  -999.0  -999.0  -999.0  -999.0  -999.0  -999.0  -999.0  -999.0  -999.0  -999.0  -999.0  6218.3  6217.4  6214.6
       6212.3  6209.4  6208.5  6208.0  6208.2  6208.4  6207.2  6207.0  6207.6  6199.7  6201.0  6204.9  6213.3  6241.2  6196.6
       6172.8  6160.4  6154.9  6148.9  6143.0  6137.3  6133.2  6130.7  6128.3  6126.4  6125.9  6125.0  6125.1  6125.0  6122.9
       6118.6  6126.2  6131.0  6135.9  6141.0  6146.0  6151.1  6164.1  6187.3  6220.5  -999.0  -999.0  -999.0  -999.0  -999.0
       -999.0  -999.0  -999.0  -999.0  -999.0
  28   -999.0  -999.0  -999.0  -999.0  -999.0  -999.0  -999.0  -999.0  -999.0  -999.0  -999.0  -999.0  -999.0  -999.0  -999.0
       -999.0  -999.0  -999.0  -999.0  -999.0  -999.0  -999.0  -999.0  -999.0  -999.0  -999.0  -999.0  6208.4  6203.7  6201.2
       6198.4  6195.9  6195.0  6195.5  6196.6  6197.6  6198.1  6198.2  6196.6  6183.2  6183.8  6185.9  6189.6  6196.6  6220.7
       6178.5  6164.7  6155.6  6147.2  6139.8  6133.1  6129.0  6126.1  6123.6  6122.1  6121.4  6120.8  6120.3  6118.5  6111.8
       6118.9  6123.9  6129.1  6134.8  6139.6  6144.2  6155.7  6175.0  6205.2  -999.0  -999.0  -999.0  -999.0  -999.0  -999.0
       -999.0  -999.0  -999.0  -999.0  -999.0
  29   -999.0  -999.0  -999.0  -999.0  -999.0  -999.0  -999.0  -999.0  -999.0  -999.0  -999.0  -999.0  -999.0  -999.0  -999.0
       -999.0  -999.0  -999.0  -999.0  -999.0  -999.0  -999.0  -999.0  -999.0  -999.0  -999.0  -999.0  6191.4  6189.3  6186.8
       6183.8  6181.2  6180.1  6180.9  6183.2  6185.7  6188.5  6190.8  6188.5  6170.3  6170.2  6171.6  6173.6  6176.2  6181.6
       6200.3  6190.3  6161.1  6146.9  6136.8  6129.2  6124.9  6121.2  6118.0  6117.0  6116.3  6115.4  6112.8  6110.8  6106.8
       6115.1  6121.1  6126.8  6133.6  6138.3  6149.5  6166.9  6185.6  6211.9  -999.0  -999.0  -999.0  -999.0  -999.0  -999.0
       -999.0  -999.0  -999.0  -999.0  -999.0
  30   -999.0  -999.0  -999.0  -999.0  -999.0  -999.0  -999.0  -999.0  -999.0  -999.0  -999.0  -999.0  -999.0  -999.0  -999.0
       -999.0  -999.0  -999.0  -999.0  -999.0  -999.0  -999.0  -999.0  -999.0  -999.0  -999.0  -999.0  6175.8  6174.7  6172.1
       6168.7  6165.3  6163.7  6164.5  6167.7  6172.5  6178.1  6184.9  6183.5  6160.0  6159.8  6160.8  6161.9  6163.0  6164.9
       6171.1  6189.0  6176.7  6148.8  6136.1  6126.2  6120.6  6115.6  6112.1  6111.3  6110.4  6108.9  6101.4  6099.9  6105.0
       6112.5  6118.7  6124.4  6135.3  6147.5  6162.8  6179.7  6207.6  -999.0  -999.0  -999.0  -999.0  -999.0  -999.0  -999.0
       -999.0  -999.0  -999.0  -999.0  -999.0
  31   -999.0  -999.0  -999.0  -999.0  -999.0  -999.0  -999.0  -999.0  -999.0  -999.0  -999.0  -999.0  -999.0  -999.0  -999.0
       -999.0  -999.0  -999.0  -999.0  -999.0  -999.0  -999.0  -999.0  -999.0  -999.0  -999.0  -999.0  6163.4  6160.8  6157.6
       6153.3  6148.3  6145.8  6146.4  6150.4  6157.7  6164.5  6177.9  6179.4  6152.3  6151.6  6152.8  6153.1  6153.1  6153.1
       6154.9  6159.8  6165.2  6157.6  6148.1  6124.7  6117.1  6109.3  6106.0  6104.7  6103.7  6100.9  6095.0  6095.9  6104.1
       6111.4  6116.8  6126.2  6146.0  6161.2  6175.9  6192.4  6216.3  -999.0  -999.0  -999.0  -999.0  -999.0  -999.0  -999.0
       -999.0  -999.0  -999.0  -999.0  -999.0
  32   -999.0  -999.0  -999.0  -999.0  -999.0  -999.0  -999.0  -999.0  -999.0  -999.0  -999.0  -999.0  -999.0  -999.0  -999.0
       -999.0  -999.0  -999.0  -999.0  -999.0  -999.0  -999.0  -999.0  -999.0  -999.0  -999.0  -999.0  6150.1  6147.1  6143.4
       6138.0  6129.7  6126.1  6126.3  6130.8  6142.0  6150.5  6167.4  6175.6  6147.0  6146.9  6147.1  6146.4  6145.0  6143.1
       6141.3  6140.2  6133.8  6128.1  6122.5  6129.5  6121.1  6098.1  6098.3  6096.4  6095.4  6090.2  6091.6  6097.9  6105.1
       6112.6  -999.0  -999.0  6160.8  6176.0  6190.4  6216.9  -999.0  -999.0  -999.0  -999.0  -999.0  -999.0  -999.0  -999.0
       -999.0  -999.0  -999.0  -999.0  -999.0
  33   -999.0  -999.0  -999.0  -999.0  -999.0  -999.0  -999.0  -999.0  -999.0  -999.0  -999.0  -999.0  -999.0  -999.0  -999.0
       -999.0  -999.0  -999.0  -999.0  -999.0  -999.0  -999.0  -999.0  -999.0  -999.0  -999.0  6132.5  6135.6  6133.8  6130.0
       6124.1  6115.3  6111.4  6111.1  6114.4  6124.0  6131.7  6157.2  6173.5  6144.6  6144.4  6143.0  6141.0  6138.2  6134.5
       6129.9  6123.9  6117.9  6112.3  6109.0  6106.4  6099.9  6089.1  6089.1  6083.7  6085.2  6089.5  6094.1  6098.7  6106.6
       6156.4  6315.7  -999.0  -999.0  6193.1  6203.9  6226.9  -999.0  -999.0  -999.0  -999.0  -999.0  -999.0  -999.0  -999.0
       -999.0  -999.0  -999.0  -999.0  -999.0
  34   -999.0  -999.0  -999.0  -999.0  -999.0  -999.0  -999.0  -999.0  -999.0  -999.0  -999.0  -999.0  -999.0  -999.0  -999.0
       -999.0  -999.0  -999.0  -999.0  -999.0  -999.0  -999.0  -999.0  -999.0  -999.0  -999.0  6125.4  6123.9  6121.6  6117.6
       6112.0  6106.4  6103.1  6102.3  6104.1  6107.6  6114.1  6145.0  6171.2  6142.1  6141.2  6139.5  6136.3  6132.1  6126.8
       6120.5  6113.0  6107.4  6100.6  6098.1  6094.8  6089.9  6084.6  6077.9  6079.6  6086.0  6090.6  6094.4  6100.5  6130.7
       6205.7  6343.2  -999.0  -999.0  6203.1  6224.5  -999.0  -999.0  -999.0  -999.0  -999.0  -999.0  -999.0  -999.0  -999.0
       -999.0  -999.0  -999.0  -999.0  -999.0
  35   -999.0  -999.0  -999.0  -999.0  -999.0  -999.0  -999.0  -999.0  -999.0  -999.0  -999.0  -999.0  -999.0  -999.0  -999.0
       -999.0  -999.0  -999.0  -999.0  -999.0  -999.0  -999.0  -999.0  -999.0  -999.0  -999.0  6115.8  6112.9  6110.2  6106.2
       6101.6  6097.7  6094.9  6093.8  6093.9  6091.2  6097.1  6120.9  6165.4  6139.3  6138.4  6135.8  6131.2  6125.7  6119.0
       6111.6  6103.6  6096.6  6090.3  6088.2  6085.1  6080.5  6077.4  6076.0  6076.5  6084.0  6089.8  6096.3  6106.1  6160.2
       6246.4  6380.7  -999.0  -999.0  -999.0  -999.0  -999.0  -999.0  -999.0  -999.0  -999.0  -999.0  -999.0  -999.0  -999.0
       -999.0  -999.0  -999.0  -999.0  -999.0
  36   -999.0  -999.0  -999.0  -999.0  -999.0  -999.0  -999.0  -999.0  -999.0  -999.0  -999.0  -999.0  -999.0  -999.0  -999.0
       -999.0  -999.0  -999.0  -999.0  -999.0  -999.0  -999.0  -999.0  -999.0  -999.0  -999.0  6104.8  6101.9  6099.4  6096.0
       6092.3  6089.4  6087.1  6085.7  6084.6  6080.2  6081.6  6081.6  6124.3  6136.5  6134.6  6130.8  6124.8  6117.8  6110.1
       6101.7  6092.2  6082.2  6080.4  6078.8  6075.6  6070.5  6069.1  6071.1  6076.6  6081.9  6089.2  6098.4  6137.1  6209.9
       6289.1  6419.2  -999.0  -999.0  -999.0  -999.0  -999.0  -999.0  -999.0  -999.0  -999.0  -999.0  -999.0  -999.0  -999.0
       -999.0  -999.0  -999.0  -999.0  -999.0
  37   -999.0  -999.0  -999.0  -999.0  -999.0  -999.0  -999.0  -999.0  -999.0  -999.0  -999.0  -999.0  -999.0  -999.0  -999.0
       -999.0  -999.0  -999.0  -999.0  -999.0  -999.0  -999.0  -999.0  -999.0  -999.0  6108.9  6091.9  6090.9  6089.1  6086.4
       6083.6  6081.6  6079.6  6078.1  6076.5  6073.6  6072.7  6073.8  6078.0  6127.0  6126.1  6121.9  6115.4  6107.9  6100.0
       6091.1  6079.5  6070.1  6071.2  6070.1  6066.9  6063.8  6063.1  6069.1  6074.1  6080.8  6089.7  6122.6  6189.6  6257.9
       6331.9  6455.4  -999.0  -999.0  -999.0  -999.0  -999.0  -999.0  -999.0  -999.0  -999.0  -999.0  -999.0  -999.0  -999.0
       -999.0  -999.0  -999.0  -999.0  -999.0
  38   -999.0  -999.0  -999.0  -999.0  -999.0  -999.0  -999.0  -999.0  -999.0  -999.0  -999.0  -999.0  -999.0  -999.0  -999.0
       -999.0  -999.0  -999.0  -999.0  -999.0  -999.0  -999.0  -999.0  -999.0  -999.0  6099.4  6079.8  6080.4  6079.2  6077.3