# Head-Observation Package of the Observation Process of MODFLOW-2000.
# The observations with 4-character IDs 
#  weights around the basin margens are reduced so they do not overly influence sensitivities
#   Because of the grid size (1000 m X 1000 m) and the little information at the basin margins.
      1328       821         3         Item 1: NH MOBS MAXM
   1.000000       1.000000             Item 2: TOMULTH EVH
A001    2    7   35    1         0.      0.294 -0.499   5521.50  3.0   1    1  Item 3 # begin
A002    1    7   71    1         0.      0.491  0.240   5235.43  4.0   1    1  Item 3 # steady-state
A003    3    9   72    1         0.     -0.123  0.251   5249.49  4.0   1    1  Item 3 #  head obs.
A005    2    9   36    1         0.      0.487  0.260   5553.02  4.0   1    1  Item 3
A006    3   10   33    1         0.     -0.420 -0.181   5490.00  5.0   1    1  Item 3
A007    2    9   72    1         0.      0.342 -0.124   5237.01  4.0   1    1  Item 3
A008    2   10   73    1         0.     -0.044 -0.368   5246.44  4.0   1    1  Item 3
A013    1   12   70    1         0.     -0.180  0.128   5207.33  4.0   1    1  Item 3
A014    2   12   70    1         0.      0.190  0.356   5200.00  3.0   1    1  Item 3
A017    1   13   76    1         0.      0.495 -0.462   5359.21 10.0   1    1  Item 3
A019    1   14   36    1         0.     -0.004  0.161   5380.00  4.0   1    1  Item 3
A021    1   15   49    1         0.     -0.121 -0.071   5228.00  4.0   1    1  Item 3
A022    1   15   46    1         0.      0.069 -0.313   5320.00  4.0   1    1  Item 3
A024    2   16   35    1         0.     -0.181 -0.171   5385.00  3.0   1    1  Item 3
A025    1   16   30    1         0.      0.498  0.405   5441.00  4.0   1    1  Item 3
A028    1   18   36    1         0.      0.382  0.288   5384.90  4.0   1    1  Item 3
A032    1   19   36    1         0.      0.278 -0.189   5389.91  4.0   1    1  Item 3
A039    2   23   38    1         0.      0.076  0.428   5299.96  4.0   1    1  Item 3
A041    1   23   33    1         0.      0.170 -0.483   5438.00 10.0   1    1  Item 3
A043    1   24   48    1         0.      0.022  0.341   5207.00  4.0   1    1  Item 3
A045    3   25   41    1         0.      0.020 -0.004   5290.60  3.0   1    1  Item 3
A047    4   25   69    1         0.     -0.142  0.402   5148.80  3.0   1    1  Item 3
A049    1   27   41    1         0.     -0.250  0.123   5266.00  4.0   1    1  Item 3
A054    1   28   45    1         0.      0.011  0.202   5220.67  4.0   1    1  Item 3
A056    1   29   41    1         0.      0.437  0.377   5250.00  4.0   1    1  Item 3
A057    1   29   56    1         0.      0.319 -0.023   5083.60  5.0   1    1  Item 3
A060    3   31   63    1         0.      0.337 -0.018   5205.00  5.0   1    1  Item 3
A066    1   38   49    1         0.      0.291 -0.055   5073.30  4.0   1    1  Item 3
A068    1   39   54    1         0.      0.083  0.390   5063.44  4.0   1    1  Item 3
A069    4   39   30    1         0.      0.478 -0.105   4972.00  3.0   1    1  Item 3
A074    1   44   42    1         0.     -0.294  0.449   5008.00  5.0   1    1  Item 3
A076    1   46   53    1         0.     -0.303 -0.259   5063.00  4.0   1    1  Item 3
A079    5   46   27    1         0.      0.396 -0.059   4955.00  5.0   1    1  Item 3
A084    2   52   44    1         0.     -0.266  0.048   4989.38  4.0   1    1  Item 3
A094    1   56   53    1         0.     -0.204  0.217   4989.50  4.0   1    1  Item 3
A095    2   56   43    1         0.      0.461  0.498   4978.00  4.0   1    1  Item 3
A097    1   57   36    1         0.      0.269  0.454   4967.40  4.0   1    1  Item 3
A101    1   58   43    1         0.     -0.118  0.297   4983.00  4.0   1    1  Item 3
A103    1   58   51    1         0.      0.457  0.102   4967.10  4.0   1    1  Item 3
A107    2   59   42    1         0.     -0.129  0.490   4969.00  4.0   1    1  Item 3
A116    3   60   44    1         0.     -0.204 -0.145   4968.97  3.0   1    1  Item 3
A120    2   60   44    1         0.      0.074 -0.018   4970.00  4.0   1    1  Item 3
A127    5   60   40    1         0.      0.480 -0.085   4953.00  3.0   1    1  Item 3
A142    3   63   44    1         0.     -0.300 -0.116   4948.63  4.0   1    1  Item 3
A143    3   63   40    1         0.     -0.173 -0.260   4943.46  3.0   1    1  Item 3
A145    2   63   41    1         0.      0.135  0.206   4943.74  4.0   1    1  Item 3
A146    1   63   46    1         0.      0.252  0.336   4965.30  4.0   1    1  Item 3
A149    1   64   46    1         0.     -0.499 -0.498   4963.40  4.0   1    1  Item 3
A153    1   64   39    1         0.      0.094 -0.042   4946.78  4.0   1    1  Item 3
A154    3   65   43    1         0.     -0.384 -0.302   4930.60  3.0   1    1  Item 3
A155    1   65   47    1         0.     -0.266  0.298   4957.50  4.0   1    1  Item 3
A157    1   65   48    1         0.      0.351 -0.322   4961.00  4.0   1    1  Item 3
A168    3   66   26    1         0.      0.441  0.220   4913.00  3.0   1    1  Item 3
A169    4   66   26    1         0.      0.441  0.220   4916.00  3.0   1    1  Item 3
A171    5   67   34    1         0.      0.339 -0.146   4924.45  3.0   1    1  Item 3
A177    4   68   50    1         0.      0.095  0.160   4946.70  3.0   1    1  Item 3
A178    4   68   52    1         0.      0.369  0.107   4967.70  3.0   1    1  Item 3
A181    5   69   43    1         0.     -0.307 -0.120   4923.33  3.0   1    1  Item 3
A187    4   70   46    1         0.     -0.353 -0.464   4945.45  3.0   1    1  Item 3
A190    4   70   52    1         0.      0.223  0.086   4962.80  3.0   1    1  Item 3
A191    4   71   50    1         0.     -0.371 -0.467   4952.00  3.0   1    1  Item 3
A193    2   71   43    1         0.      0.164 -0.295   4910.00  4.0   1    1  Item 3
A196    4   72   51    1         0.     -0.170  0.432   4978.50  3.0   1    1  Item 3
A200    5   73   48    1         0.     -0.422 -0.260   4950.00  5.0   1    1  Item 3
A201    5   73   22    1         0.     -0.138  0.244   4932.00  3.0   1    1  Item 3
A203    1   74   22    1         0.     -0.243 -0.238   4923.00  3.0   1    1  Item 3
A206    1   75   21    1         0.     -0.287 -0.352   4918.00  3.0   1    1  Item 3
A207    1   75   22    1         0.     -0.162  0.140   4929.00  3.0   1    1  Item 3
A208    3   75   55    1         0.     -0.428 -0.375   4964.00  3.0   1    1  Item 3
A214    1   77   30    1         0.      0.377  0.058   4871.40  4.0   1    1  Item 3
A218    2   80   36    1         0.      0.003 -0.145   4895.55  5.0   1    1  Item 3
A222    1   81   29    1         0.      0.454  0.449   4887.71  4.0   1    1  Item 3
A224    1   84   51    1         0.      0.495 -0.024   5327.30 10.0   1    1  Item 3
A228    1   86   18    1         0.     -0.357 -0.255   4975.40 10.0   1    1  Item 3
A229    1   85   42    1         0.      0.465  0.341   4879.30  5.0   1    1  Item 3
A230    1   86   19    1         0.     -0.169  0.442   4842.50  4.0   1    1  Item 3
A231    1   86   25    1         0.      0.300 -0.290   4870.50  4.0   1    1  Item 3
A234    1   89   16    1         0.      0.253 -0.035   4970.80 10.0   1    1  Item 3
A235    1   89   43    1         0.      0.110 -0.428   4863.53  4.0   1    1  Item 3
A236    1   89   16    1         0.      0.409  0.396   4970.70 10.0   1    1  Item 3
A237    2   90   10    1         0.     -0.390 -0.193   4991.40 10.0   1    1  Item 3
A241    1   92   45    1         0.     -0.298  0.059   4842.50  5.0   1    1  Item 3
A243    4   94   33    1         0.     -0.376 -0.006   4852.00  3.0   1    1  Item 3
A247    1   95   12    1         0.     -0.072 -0.280   4983.45 10.0   1    1  Item 3
A254    1   96   18    1         0.      0.206 -0.272   4841.20  4.0   1    1  Item 3
A256    2   97   49    1         0.     -0.394  0.326   4901.60  3.0   1    1  Item 3
A259    1   98   12    1         0.     -0.107 -0.363   4973.89 10.0   1    1  Item 3
A260    1   99   46    1         0.      0.082  0.388   4843.23  4.0   1    1  Item 3
A264    1  100   23    1         0.      0.384  0.429   4832.31  5.0   1    1  Item 3
A265    3  100   43    1         0.      0.414  0.041   4830.00  3.0   1    1  Item 3
A266    3  101   33    1         0.      0.007 -0.437   4827.95  5.0   1    1  Item 3
A272    1  103   11    1         0.      0.481 -0.492   5043.51 10.0   1    1  Item 3
A274    1  104   16    1         0.      0.080  0.065   4839.32  4.0   1    1  Item 3
A275    1  104   12    1         0.      0.134  0.333   4845.20  5.0   1    1  Item 3
A276    2  104   41    1         0.      0.061  0.344   4824.80  3.0   1    1  Item 3
A281    3  106   31    1         0.     -0.361  0.293   4815.20  5.0   1    1  Item 3
A283    3  107   31    1         0.     -0.063  0.318   4808.82  3.0   1    1  Item 3
A285    3  107   30    1         0.      0.184  0.023   4812.88  4.0   1    1  Item 3
A290    1  113   18    1         0.     -0.423  0.081   4829.27  4.0   1    1  Item 3
A291    4  113   37    1         0.      0.052 -0.322   4800.00  3.0   1    1  Item 3
A298    1  116   30    1         0.      0.450 -0.234   4800.10  4.0   1    1  Item 3
A305    1  121   24    1         0.      0.388  0.297   4797.63  4.0   1    1  Item 3
A307    1  122   20    1         0.     -0.309 -0.408   4821.57  4.0   1    1  Item 3
A308    1  122   17    1         0.      0.088 -0.257   4810.21  5.0   1    1  Item 3
A315    1  127   38    1         0.     -0.049 -0.096   4788.41  4.0   1    1  Item 3
A323    2  135   14    1         0.     -0.408  0.124   4773.00  4.0   1    1  Item 3
A328    1  138   18    1         0.     -0.033  0.371   4765.08  4.0   1    1  Item 3
A338    3  152   14    1         0.     -0.483 -0.498   4883.68  5.0   1    1  Item 3
A340    1  153   17    1         0.     -0.426 -0.004   4814.48  4.0   1    1  Item 3
A004   -2    9   71    1         0.      0.038 -0.256   5222.37  4.0   1    1  Item 3
    1 0.445        2 0.555    				       	  
A009   -2   10   71    1         0.      0.118  0.000   5222.10  4.0   1    1  Item 3
    1 0.382        2 0.618    				       	  
A010   -2   10   70    1         0.      0.429  0.373   5214.02  4.0   1    1  Item 3
    1 0.668        2 0.332    				       	  
A011   -2   11   72    1         0.     -0.269  0.133   5236.21  4.0   1    1  Item 3
    1 0.115        2 0.885    				       	  
A012   -2   12   34    1         0.     -0.104 -0.176   5471.70  4.0   1    1  Item 3
    2 0.525        3 0.475    				       	  
A015   -2   13   32    1         0.     -0.486 -0.061   5450.00  4.0   1    1  Item 3
    2 0.211        3 0.789    				       	  
A016   -2   13   38    1         0.      0.069 -0.332   5383.00  4.0   1    1  Item 3
    1 0.844        2 0.156    				       	  
A018   -2   14   35    1         0.     -0.003  0.281   5409.00  4.0   1    1  Item 3
    1 0.130        2 0.870				       	  
A020   -2   14   42    1         0.      0.363  0.218   5330.00  3.0   1    1  Item 3
    2 0.488        3 0.512    				       	  
A023   -2   15   39    1         0.      0.261  0.479   5393.73  4.0   1    1  Item 3
    1 0.537        2 0.463    				       	  
A026   -2   17   67    1         0.     -0.042  0.459   5179.00  3.0   1    1  Item 3
    1 0.810        2 0.190				       	  
A027   -2   18   37    1         0.     -0.267  0.243   5373.00  3.0   1    1  Item 3
    3 0.801        4 0.199    				       	  
A029   -2   18   36    1         0.      0.413  0.313   5375.00  3.0   1    1  Item 3
    2 0.368        3 0.632    				       	  
A030   -2   19   36    1         0.     -0.463  0.464   5390.00  3.0   1    1  Item 3
    3 0.615        4 0.385    				       	  
A031   -2   19   72    1         0.     -0.455  0.243   5221.89  4.0   1    1  Item 3
    1 0.508        2 0.492    				       	  
A033   -2   19   70    1         0.      0.390 -0.469   5159.00  4.0   1    1  Item 3
    4 0.343        5 0.657    				       	  
A034   -2   20   35    1         0.     -0.227 -0.044   5382.42  3.0   1    1  Item 3
    4 0.172        5 0.828    				       	  
A035   -2   20   35    1         0.     -0.227 -0.044   5377.52  3.0   1    1  Item 3
    3 0.563        4 0.437    				       	  
A036   -2   20   35    1         0.     -0.227 -0.044   5381.42  3.0   1    1  Item 3
    4 0.800        5 0.200				       	  
A037   -2   20   46    1         0.      0.443 -0.356   5155.00  3.0   1    1  Item 3
    2 0.818        3 0.182    				       	  
A038   -2   22   39    1         0.     -0.499 -0.246   5333.40  5.0   1    1  Item 3
    2 0.426        3 0.574    				       	  
A040   -2   23   41    1         0.      0.074  0.346   5300.53  3.0   1    1  Item 3
    1 0.836        2 0.164    				       	  
A042   -2   24   46    1         0.     -0.438  0.076   5140.00  4.0   1    1  Item 3
    1 0.578        2 0.422    				       	  
A044   -2   25   41    1         0.      0.020 -0.004   5305.86  3.0   1    1  Item 3
    4 0.789        5 0.211    				       	  
A046   -2   25   41    1         0.      0.020 -0.004   5315.45  3.0   1    1  Item 3
    4 0.120        5 0.880				       	  
A048   -2   27   63    1         0.     -0.480 -0.487   5142.00  3.0   1    1  Item 3
    4 0.500        5 0.500				       	  
A050   -2   27   46    1         0.      0.238 -0.095   5212.27  4.0   1    1  Item 3
    2 0.651        3 0.349    				       	  
A051   -2   27   60    1         0.      0.392  0.226   5127.00  3.0   1    1  Item 3
    1 0.621        2 0.379    				       	  
A052   -2   27   60    1         0.      0.392  0.226   5135.20  3.0   1    1  Item 3
    4 0.342        5 0.658    				       	  
A053   -2   28   37    1         0.     -0.259  0.500   5233.00  4.0   1    1  Item 3
    1 0.722        2 0.278    				       	  
A055   -2   29   65    1         0.     -0.202 -0.214   5130.00  3.0   1    1  Item 3
    3 0.673        4 0.327    				       	  
A058   -2   30   53    1         0.     -0.458 -0.219   5085.00  3.0   1    1  Item 3
    1 0.424        2 0.576    				       	  
A059   -2   30   64    1         0.      0.223 -0.468   5219.89  5.0   1    1  Item 3
    2 0.860        3 0.140				       	  
A061   -2   32   46    1         0.      0.119 -0.088   5139.94  4.0   1    1  Item 3
    1 0.116        2 0.884    				       	  
A062   -2   32   59    1         0.      0.492 -0.144   5096.00  4.0   1    1  Item 3
    4 0.405        5 0.595    				       	  
A063   -2   33   59    1         0.     -0.046  0.286   5121.00  5.0   1    1  Item 3
    4 0.653        5 0.347    				       	  
A064   -2   35   59    1         0.     -0.252 -0.339   5087.59  5.0   1    1  Item 3
    3 0.702        4 0.298    				       	  
A065   -2   38   50    1         0.      0.073  0.104   5036.74  4.0   1    1  Item 3
    1 0.648        2 0.352    				       	  
A070   -2   40   54    1         0.     -0.021  0.114   5050.00  4.0   1    1  Item 3
    3 0.743        4 0.257    				       	  
A071   -2   40   50    1         0.      0.143 -0.397   5044.45  4.0   1    1  Item 3
    1 0.404        2 0.596    				       	  
A072   -2   42   51    1         0.     -0.346 -0.133   5039.00  4.0   1    1  Item 3
    4 0.746        5 0.254    				       	  
A073   -2   42   35    1         0.     -0.081 -0.014   4956.37  5.0   1    1  Item 3
    5 0.870        6 0.130				       	  
A075   -2   45   28    1         0.     -0.210  0.228   4953.85  3.0   1    1  Item 3
    4 0.455        5 0.545    				       	  
A077   -2   46   47    1         0.      0.017 -0.311   5013.72  4.0   1    1  Item 3
    1 0.401        2 0.599    				       	  
A078   -2   46   47    1         0.      0.017 -0.311   5016.89  3.0   1    1  Item 3
    1 0.380        2 0.620				       	  
A080   -2   47   46    1         0.     -0.365  0.185   5021.88  3.0   1    1  Item 3
    1 0.750        2 0.250				       	  
A081   -2   48   47    1         0.     -0.068 -0.359   5008.00  4.0   1    1  Item 3
    1 0.578        2 0.422    				       	  
A082   -2   48   50    1         0.      0.173  0.148   5035.47  5.0   1    1  Item 3
    3 0.162        4 0.838    				       	  
A083   -2   50   53    1         0.      0.021 -0.250   4995.02  4.0   1    1  Item 3
    1 0.782        2 0.218    				       	  
A085   -2   52   43    1         0.      0.045 -0.315   4987.80  4.0   1    1  Item 3
    2 0.495        3 0.505    				       	  
A086   -2   54   43    1         0.      0.021  0.268   4987.70  4.0   1    1  Item 3
    2 0.473        3 0.527    				       	  
A087   -2   55   43    1         0.      0.225  0.496   4983.98  4.0   1    1  Item 3
    2 0.758        3 0.242    				       	  
A088   -2   55   30    1         0.      0.416  0.369   4946.60  3.0   1    1  Item 3
    4 0.188        5 0.812    				       	  
A089   -2   55   30    1         0.      0.416  0.369   4945.50  3.0   1    1  Item 3
    5 0.654        6 0.346    				       	  
A090   -2   55   30    1         0.      0.416  0.369   4951.00  3.0   1    1  Item 3
    4 0.231        5 0.769    				       	  
A091   -2   55   30    1         0.      0.447  0.419   4962.40  3.0   1    1  Item 3
    1 0.737        2 0.263    				       	  
A092   -2   55   41    1         0.      0.444  0.073   4982.00  4.0   1    1  Item 3
    2 0.834        3 0.166    				       	  
A096   -2   57   39    1         0.      0.052  0.054   4971.40  4.0   1    1  Item 3
    1 0.737        2 0.263    				       	  
A098   -2   58   29    1         0.     -0.484  0.080   4943.30  3.0   1    1  Item 3
    4 0.226        5 0.774    				       	  
A099   -2   57   42    1         0.      0.451 -0.319   4975.00  4.0   1    1  Item 3
    1 0.197        2 0.803    				       	  
A100   -2   58   45    1         0.     -0.244  0.317   4968.05  4.0   1    1  Item 3
    2 0.346        3 0.654    				       	  
A102   -2   58   43    1         0.      0.067  0.323   4980.50  4.0   1    1  Item 3
    1 0.405        2 0.595    				       	  
A104   -2   59   29    1         0.     -0.279 -0.375   4942.00  3.0   1    1  Item 3
    1 0.222        2 0.778    				       	  
A105   -2   59   44    1         0.     -0.316  0.435   4973.35  4.0   1    1  Item 3
    2 0.374        3 0.626    				       	  
A106   -2   59   42    1         0.     -0.129  0.490   4969.00  4.0   1    1  Item 3
    1 0.427        2 0.573    				       	  
A108   -2   59   47    1         0.     -0.104  0.137   4956.10  3.0   1    1  Item 3
    1 0.323        2 0.677    				       	  
A109   -2   59   26    1         0.      0.152  0.377   4943.89  3.0   1    1  Item 3
    4 0.809        5 0.191    				       	  
A110   -2   59   26    1         0.      0.152  0.377   4943.89  3.0   1    1  Item 3
    4 0.809        5 0.191    				       	  
A111   -2   59   41    1         0.      0.428  0.203   4962.05  3.0   1    1  Item 3
    3 0.898        4 0.102    				       	  
A112   -2   60   38    1         0.     -0.292  0.475   4960.18  4.0   1    1  Item 3
    2 0.764        3 0.236    				       	  
A113   -2   60   41    1         0.     -0.293 -0.100   4960.00  3.0   1    1  Item 3
    4 0.280        5 0.720				       	  
A114   -2   60   45    1         0.     -0.329  0.270   4963.05  4.0   1    1  Item 3
    2 0.753        3 0.247    				       	  
A115   -2   60   48    1         0.     -0.333 -0.306   4965.13  3.0   1    1  Item 3
    4 0.555        5 0.445    				       	  
A117   -2   60   42    1         0.     -0.109  0.138   4962.00  3.0   1    1  Item 3
    4 0.287        5 0.713    				       	  
A118   -2   60   49    1         0.     -0.056 -0.270   4966.30  3.0   1    1  Item 3
    3 0.140        4 0.860				       	  
A119   -2   60   37    1         0.      0.111 -0.141   4963.00  4.0   1    1  Item 3
    1 0.846        2 0.154    				       	  
A121   -2   60   50    1         0.      0.066 -0.385   4960.00  3.0   1    1  Item 3
    4 0.680        5 0.320				       	  
A122   -2   60   52    1         0.      0.061 -0.238   4967.00  3.0   1    1  Item 3
    4 0.842        5 0.158    				       	  
A123   -2   60   51    1         0.      0.125 -0.274   4963.00  3.0   1    1  Item 3
    4 0.322        5 0.678    				       	  
A124   -2   60   46    1         0.      0.256  0.483   4961.00  3.0   1    1  Item 3
    4 0.364        5 0.636    				       	  
A125   -2   60   47    1         0.      0.379 -0.037   4962.00  3.0   1    1  Item 3
    4 0.433        5 0.567    				       	  
A126   -2   60   48    1         0.      0.377 -0.027   4959.00  3.0   1    1  Item 3
    4 0.654        5 0.346    				       	  
A128   -2   60   42    1         0.      0.478 -0.468   4952.35  3.0   1    1  Item 3
    4 0.345        5 0.655    				       	  
A129   -2   61   51    1         0.     -0.288 -0.273   4965.85  3.0   1    1  Item 3
    4 0.688        5 0.312    				       	  
A130   -2   61   49    1         0.     -0.162  0.237   4965.00  3.0   1    1  Item 3
    4 0.593        5 0.407    				       	  
A131   -2   61   40    1         0.     -0.088  0.497   4955.00  3.0   1    1  Item 3
    4 0.356        5 0.644    				       	  
A132   -2   61   46    1         0.     -0.064  0.357   4960.20  3.0   1    1  Item 3
    4 0.424        5 0.576    				       	  
A133   -2   61   52    1         0.     -0.074 -0.060   4975.00  3.0   1    1  Item 3
    4 0.493        5 0.507    				       	  
A134   -2   61   48    1         0.      0.056  0.252   4963.05  4.0   1    1  Item 3
    1 0.170        2 0.830				       	  
A135   -2   61   48    1         0.      0.458  0.228   4955.00  3.0   1    1  Item 3
    4 0.749        5 0.251    				       	  
A136   -2   62   45    1         0.     -0.476  0.474   4969.00  4.0   1    1  Item 3
    1 0.546        2 0.454    				       	  
A137   -2   62   50    1         0.     -0.452 -0.458   4961.62  3.0   1    1  Item 3
    4 0.635        5 0.365    				       	  
A138   -2   62   47    1         0.     -0.077  0.218   4957.90  4.0   1    1  Item 3
    3 0.817        4 0.183    				       	  
A139   -2   62   39    1         0.      0.148  0.184   4948.23  3.0   1    1  Item 3
    4 0.380        5 0.620				       	  
A140   -2   63   39    1         0.     -0.481 -0.119   4958.00  4.0   1    1  Item 3
    5 0.786        6 0.214    				       	  
A141   -2   63   40    1         0.     -0.451 -0.108   4950.00  3.0   1    1  Item 3
    4 0.139        5 0.861    				       	  
A144   -2   63   41    1         0.      0.012 -0.476   4939.00  3.0   1    1  Item 3
    4 0.133        5 0.867    				       	  
A147   -2   63   39    1         0.      0.322 -0.245   4935.00  3.0   1    1  Item 3
    4 0.177        5 0.823    				       	  
A148   -2   63   39    1         0.      0.353  0.362   4952.00  3.0   1    1  Item 3
    4 0.196        5 0.804    				       	  
A150   -2   64   41    1         0.     -0.247  0.232   4946.00  4.0   1    1  Item 3
    4 0.775        5 0.225    				       	  
A151   -2   64   38    1         0.      0.095 -0.306   4949.67  4.0   1    1  Item 3
    1 0.865        2 0.135    				       	  
A152   -2   64   39    1         0.      0.094 -0.371   4948.00  3.0   1    1  Item 3
    4 0.614        5 0.386    				       	  
A156   -2   65   38    1         0.      0.330  0.074   4928.45  4.0   1    1  Item 3
    1 0.236        2 0.764    				       	  
A158   -2   66   42    1         0.     -0.457  0.017   4931.00  4.0   1    1  Item 3
    4 0.454        5 0.546    				       	  
A159   -2   66   45    1         0.     -0.460  0.075   4951.60  4.0   1    1  Item 3
    2 0.451        3 0.549    				       	  
A160   -2   66   39    1         0.     -0.361 -0.370   4939.72  3.0   1    1  Item 3
    4 0.361        5 0.639    				       	  
A161   -2   66   43    1         0.     -0.365 -0.073   4931.20  4.0   1    1  Item 3
    1 0.707        2 0.293    				       	  
A162   -2   66   53    1         0.     -0.444  0.188   4960.00  3.0   1    1  Item 3
    4 0.813        5 0.187    				       	  
A163   -2   66   40    1         0.     -0.208 -0.005   4942.33  4.0   1    1  Item 3
    2 0.468        3 0.532    				       	  
A164   -2   66   51    1         0.     -0.254  0.369   4956.93  3.0   1    1  Item 3
    4 0.233        5 0.767    				       	  
A165   -2   66   52    1         0.     -0.257  0.430   4962.03  3.0   1    1  Item 3
    4 0.338        5 0.662    				       	  
A166   -2   66   44    1         0.     -0.089  0.469   4952.00  4.0   1    1  Item 3
    2 0.243        3 0.757    				       	  
A167   -2   66   26    1         0.      0.410  0.245   4915.00  3.0   1    1  Item 3
    3 0.561        4 0.439    				       	  
A170   -2   66   52    1         0.      0.332 -0.200   4947.85  3.0   1    1  Item 3
    4 0.262        5 0.738    				       	  
A172   -2   67   39    1         0.      0.368  0.289   4918.00  4.0   1    1  Item 3
    1 0.139        2 0.861    				       	  
A173   -2   67   43    1         0.      0.488  0.131   4931.44  4.0   1    1  Item 3
    1 0.161        2 0.839    				       	  
A174   -2   68   46    1         0.     -0.022  0.241   4949.00  3.0   1    1  Item 3
    4 0.788        5 0.212    				       	  
A175   -2   68   42    1         0.      0.138 -0.132   4936.50  4.0   1    1  Item 3
    1 0.386        2 0.614    				       	  
A176   -2   68   37    1         0.      0.203 -0.239   4935.37  4.0   1    1  Item 3
    1 0.567        2 0.433    				       	  
A179   -2   69   28    1         0.     -0.334 -0.290   4899.00  3.0   1    1  Item 3
    2 0.550        3 0.450				       	  
A180   -2   69   29    1         0.     -0.303 -0.253   4891.00  3.0   1    1  Item 3
    4 0.762        5 0.238    				       	  
A182   -2   69   39    1         0.     -0.180  0.239   4930.00  4.0   1    1  Item 3
    1 0.598        2 0.402    				       	  
A183   -2   69   46    1         0.     -0.064  0.394   4962.20  3.0   1    1  Item 3
    4 0.744        5 0.256    				       	  
A184   -2   69   41    1         0.      0.374  0.060   4928.50  4.0   1    1  Item 3
    1 0.286        2 0.714    				       	  
A185   -2   69   56    1         0.      0.257 -0.401   4983.83  4.0   1    1  Item 3
    4 0.527        5 0.473    				       	  
A186   -2   69   48    1         0.      0.396  0.317   4942.00  4.0   1    1  Item 3
    4 0.399        5 0.601    				       	  
A188   -2   70   51    1         0.     -0.268 -0.483   4956.40  3.0   1    1  Item 3
    4 0.513        5 0.487    				       	  
A189   -2   70   43    1         0.     -0.196  0.311   4931.28  3.0   1    1  Item 3
    2 0.650        3 0.350				       	  
A192   -2   71   48    1         0.     -0.338  0.319   4953.00  3.0   1    1  Item 3
    4 0.736        5 0.264    				       	  
A194   -2   71   50    1         0.      0.431  0.445   4954.60  3.0   1    1  Item 3
    4 0.856        5 0.144    				       	  
A195   -2   72   42    1         0.     -0.464 -0.053   4927.12  4.0   1    1  Item 3
    2 0.888        3 0.112    				       	  
A197   -2   72   38    1         0.      0.218  0.053   4928.00  4.0   1    1  Item 3
    1 0.431        2 0.569    				       	  
A198   -2   72   43    1         0.      0.214 -0.091   4910.34  3.0   1    1  Item 3
    4 0.618        5 0.382    				       	  
A199   -2   72   35    1         0.      0.374  0.448   4923.39  3.0   1    1  Item 3
    2 0.641        3 0.359    				       	  
A202   -2   73   27    1         0.      0.144 -0.051   4907.00  3.0   1    1  Item 3
    4 0.365        5 0.635    				       	  
A204   -2   74   18    1         0.      0.369 -0.160   5125.90 10.0   1    1  Item 3
    1 0.144        2 0.856    				       	  
A205   -2   74   37    1         0.      0.319  0.270   4920.00  3.0   1    1  Item 3
    1 0.476        2 0.524    				       	  
A209   -2   76   37    1         0.      0.234  0.169   4906.13  4.0   1    1  Item 3
    1 0.803        2 0.197    				       	  
A210   -2   76   41    1         0.      0.263 -0.339   4916.93  5.0   1    1  Item 3
    2 0.673        3 0.327    				       	  
A211   -2   77   36    1         0.     -0.333  0.436   4877.30  4.0   1    1  Item 3
    2 0.299        3 0.701    				       	  
A212   -2   77   37    1         0.     -0.117 -0.134   4898.89  4.0   1    1  Item 3
    2 0.272        3 0.728    				       	  
A213   -2   77   39    1         0.      0.005  0.270   4908.00  4.0   1    1  Item 3
    2 0.711        3 0.289    				       	  
A215   -2   78   39    1         0.      0.241 -0.463   4896.90  4.0   1    1  Item 3
    2 0.643        3 0.357    				       	  
A216   -2   79   49    1         0.     -0.308  0.041   4943.54  4.0   1    1  Item 3
    1 0.350        2 0.650				       	  
A217   -2   79   37    1         0.      0.323 -0.133   4908.60  4.0   1    1  Item 3
    1 0.193        2 0.807    				       	  
A219   -2   80   37    1         0.      0.249 -0.133   4889.37  4.0   1    1  Item 3
    2 0.808        3 0.192    				       	  
A220   -2   81   39    1         0.      0.082 -0.360   4892.15  4.0   1    1  Item 3
    2 0.762        3 0.238    				       	  
A221   -2   81   36    1         0.      0.392  0.488   4889.80  5.0   1    1  Item 3
    2 0.789        3 0.211    				       	  
A223   -2   84   47    1         0.     -0.054  0.328   4936.02  4.0   1    1  Item 3
    2 0.295        3 0.705    				       	  
A225   -2   85   10    1         0.      0.162 -0.384   5016.00 10.0   1    1  Item 3
    2 0.647        3 0.353    				       	  
A226   -2   85   39    1         0.      0.190 -0.028   4884.63  4.0   1    1  Item 3
    1 0.838        2 0.162    				       	  