# Head-Observation Package of the Observation Process of MODFLOW-2000.
#  Head observations of piezometer nests--see WRI 02-4200 fig. 9 for 
#  locations.  Most recent heads from these observations are used
#  in table 2 of WRI 02-4200.  USGS site IDs, piezometer names,
#  and abreviations are as follows:
#
# USGS 351821106333901 BERNALILLO SITE BERN1
# USGS 351821106333902 BERNALILLO SITE BERN2
# USGS 351515106410403 LINCOLN -3      LINC3
# USGS 351515106410402 LINCOLN -2      LINC2
# USGS 351515106410401 LINCOLN-1       LINC1
# USGS 351357106323003 SANDIA PUEBLO-3 SP3
# USGS 351357106323002 SANDIA PUEBLO   SP2
# USGS 351357106323001 SANDIA PUEBLO   SP1
# USGS 351201106400506 HUNTERS RIDGE-6 HR6
# USGS 351201106400501 HUNTERS RIDGE-1 HR1
# USGS 351201106400502 HUNTERS RIDGE-2 HR2
# USGS 351201106400505 HUNTERS RIDGE-5 HR5
# USGS 351201106400504 HUNTERS RIDGE-4 HR4
# USGS 351201106400503 HUNTERS RIDGE-3 HR3
# USGS 351114106330603 NOR ESTE        NE3
# USGS 351114106330602 NOR ESTE        NE2
# USGS 351114106330601 NOR ESTE        NE1
# USGS 351059106385903 PDN Nest 1      PAS1-D
# USGS 351059106385902 PDN  Nest 1     PAS1-S
# USGS 351059106385901 PDN Nest 1      PAS1-M
# USGS 350910106414801 SIERRA VISTA    SV1
# USGS 350910106414802 SIERRA VISTA    SV2
# USGS 350910106414803 SIERRA VISTA    SV3
# USGS 350908106344401 SISTER CITIES-1 SC1
# USGS 350908106344403 SISTER CITIES-3 SC3
# USGS 350908106344402 SISTER CITIES-2 SC2
# USGS 350706106390303 GARFIELD - 3    GAR3
# USGS 350706106390301 GARFIELD - 1    GAR1
# USGS 350706106390302 GARFIELD-2      GAR2
# USGS 350653106311601 MATHESON -1     MATH1
# USGS 350653106311603 MATHESON -3     MATH3
# USGS 350653106311602 MATHESON - 2    MATH2
# USGS 350638106413703 WEST BLUFF - 3  WB3
# USGS 350638106413701 WEST BLUFF -1   WB1
# USGS 350638106413702 WEST BLUFF - 2  WB2
# USGS 350638106413704 WEST BLUFF - 4  WB4
# USGS 350638106413706 WEST BLUFF - 6  WB6
# USGS 350638106413705 WEST BLUFF - 5  WB5
# USGS 350534106354702 DEL SOL DIV - 2 DS2
# USGS 350534106354703 DEL SOL DIV - 3 DS3
# USGS 350534106354701 DEL SOL DIV - 1 DS1
# USGS 350530106445202 98TH STRT SITE  NES2
# USGS 350530106445201 98TH STR. SITE  NES1
# USGS 350530106445203 98TH ST SITE    NES3
# USGS 350530106445204 98TH STR SITE   NES4
# USGS 350244106450202 WgateHgtsPark2  WGHP2
# USGS 350244106450201 WgateHgtsPark1  WGHP1
# USGS 350138106401103 Rio Bravo Nest5 RBB5-D
# USGS 350138106401101 Rio Bravo Nest5 RBB5-M
# USGS 350138106401102 Rio Bravo Nest5 RBB5-S
# USGS 350100106405701 RIO BRAVO PARK1 RBP1
# USGS 350100106405702 RIO BRAVO PARK2 RBP2
# USGS 350056106370102 MONTESA         MONT2
# USGS 350056106370101 MONTESA         MONT1
# USGS 350056106370103 MONTESA         MONT3
# USGS 345758106364001 MESA DEL SOL-1  MDS1
# USGS 345758106364003 MESA DEL SOL-3  MDS3
# USGS 345758106364002 MESA DEL SOL-2  MDS2
# USGS 345650106415903 ISLETA - 3      ISL3
# USGS 345650106415902 ISTELA - 2      ISL2
# USGS 345650106415901 ISLETA -1       ISL1
# USGS 345650106415904 ISLETA - 4      ISL4
# USGS 344431106393403 TOME - 3        TOME3
# USGS 344431106393402 TOME - 2        TOME2
# USGS 344431106393401 TOME - 1        TOME1
# USGS 343753106430602 NANCY LOPEZ2    NL2
# USGS 343753106430601 NANCY LOPEZ1    NL1
# USGS 354056106215801 DOME ROAD       DR1
# USGS 351331106390801 INTLA2
# USGS 351331106390802 INTLA5
# USGS 351331106390803 INTLA6
# USGS 351330106390803 INTLA4
# USGS 351330106390802 INTLA3
# USGS 351330106390801 INTLA1
# USGS 351305106383101 INTLB1
# USGS 351305106383102 INTLB2
# USGS 351305106383103 INTLB3
# USGS 353000106434501 ZIADEP
# USGS 353000106434502 ZIAMID
# USGS 353000106434503 ZIATOP
# USGS 352708106394301 SADEP
# USGS 352708106394302 SAMID
# USGS 352708106394303 SATOP
#
# Numbers on the end of the observation names indicate time of observation, in
#  decimal years.  For example, Jan. 5, 1994 is 94.01 (94 + 5/365 = 94.0137).
#  Numbers such as 00.21 are in the year 2000.
      5114      3967         2             Item 1: NH MOBS MAXM
   1.000000       1.000000                 Item 2: TOMULTH EVH
  RBB5-M        3   72   40  -43   0.000   0.340   0.380     0.00 0.0  0  0  ITEM3
   1        ITEM5
RBB5-M94.01    40  65.992  4922.25  3.0  0.1  1  1  ITEM6
RBB5-M94.04    40  75.992  4922.19  3.0  0.1  1  1  ITEM6
RBB5-M94.07    40  85.992  4922.15  3.0  0.1  1  1  ITEM6
RBB5-M94.10    40  96.430  4922.14  3.0  0.1  1  1  ITEM6
RBB5-M94.12    40 106.430  4922.13  3.0  0.1  1  1  ITEM6
RBB5-M94.15    40 116.430  4922.13  3.0  0.1  1  1  ITEM6
RBB5-M94.18    40 126.867  4922.32  3.0  0.1  1  1  ITEM6
RBB5-M94.21    41   1.617  4922.43  3.0  0.1  1  1  ITEM6
RBB5-M94.24    41  11.617  4922.68  3.0  0.1  1  1  ITEM6
RBB5-M94.26    41  22.055  4922.87  3.0  0.1  1  1  ITEM6
RBB5-M94.29    41  32.055  4923.09  3.0  0.1  1  1  ITEM6
RBB5-M94.32    41  42.055  4923.40  3.0  0.1  1  1  ITEM6
RBB5-M94.35    41  52.488  4923.29  3.0  0.1  1  1  ITEM6
RBB5-M94.37    41  62.488  4923.69  3.0  0.1  1  1  ITEM6
RBB5-M94.40    41  72.488  4923.73  3.0  0.1  1  1  ITEM6
RBB5-M94.43    41  82.926  4923.39  3.0  0.1  1  1  ITEM6
RBB5-M94.46    41  92.926  4923.38  3.0  0.1  1  1  ITEM6
RBB5-M94.49    41 102.926  4923.42  3.0  0.1  1  1  ITEM6
RBB5-M94.51    41 113.363  4922.34  3.0  0.1  1  1  ITEM6
RBB5-M94.54    41 123.363  4922.01  3.0  0.1  1  1  ITEM6
RBB5-M94.68    41 174.238  4922.23  3.0  0.1  1  1  ITEM6
RBB5-M94.71    41 184.238  4922.23  3.0  0.1  1  1  ITEM6
RBB5-M94.74    41 194.238  4922.12  3.0  0.1  1  1  ITEM6
RBB5-M94.76    41 204.676  4922.18  3.0  0.1  1  1  ITEM6
RBB5-M94.93    42  35.551  4922.37  3.0  0.1  1  1  ITEM6
RBB5-M94.96    42  45.551  4922.33  3.0  0.1  1  1  ITEM6
RBB5-M94.99    42  55.551  4922.24  3.0  0.1  1  1  ITEM6
RBB5-M95.01    42  65.992  4922.24  3.0  0.1  1  1  ITEM6
RBB5-M95.04    42  75.992  4922.21  3.0  0.1  1  1  ITEM6
RBB5-M95.07    42  85.992  4922.20  3.0  0.1  1  1  ITEM6
RBB5-M95.10    42  96.430  4922.19  3.0  0.1  1  1  ITEM6
RBB5-M97.01    46  65.992  4921.91  3.0  0.1  1  1  ITEM6
RBB5-M97.04    46  75.992  4921.81  3.0  0.1  1  1  ITEM6
RBB5-M97.07    46  85.992  4921.84  3.0  0.1  1  1  ITEM6
RBB5-M97.10    46  96.430  4921.80  3.0  0.1  1  1  ITEM6
RBB5-M97.12    46 106.430  4921.76  3.0  0.1  1  1  ITEM6
RBB5-M97.15    46 116.430  4921.86  3.0  0.1  1  1  ITEM6
RBB5-M97.18    46 126.867  4921.80  3.0  0.1  1  1  ITEM6
RBB5-M97.21    47   1.617  4921.95  3.0  0.1  1  1  ITEM6
RBB5-M97.24    47  11.617  4922.44  3.0  0.1  1  1  ITEM6
RBB5-M97.26    47  22.055  4922.50  3.0  0.1  1  1  ITEM6
RBB5-M97.29    47  32.055  4922.33  3.0  0.1  1  1  ITEM6
RBB5-M97.32    47  42.055  4922.73  3.0  0.1  1  1  ITEM6
  RBB5-S        1   72   40  -49   0.000   0.340   0.380     0.00 0.0  0  0  ITEM3
   1        ITEM5
RBB5-S94.01    40  65.992  4924.34  3.0  0.1  1  1  ITEM6
RBB5-S94.04    40  75.992  4924.28  3.0  0.1  1  1  ITEM6
RBB5-S94.07    40  85.992  4924.27  3.0  0.1  1  1  ITEM6
RBB5-S94.10    40  96.430  4924.26  3.0  0.1  1  1  ITEM6
RBB5-S94.12    40 106.430  4924.31  3.0  0.1  1  1  ITEM6
RBB5-S94.15    40 116.430  4924.36  3.0  0.1  1  1  ITEM6
RBB5-S94.18    40 126.867  4924.66  3.0  0.1  1  1  ITEM6
RBB5-S94.21    41   1.617  4924.73  3.0  0.1  1  1  ITEM6
RBB5-S94.24    41  11.617  4925.10  3.0  0.1  1  1  ITEM6
RBB5-S94.26    41  22.055  4925.38  3.0  0.1  1  1  ITEM6
RBB5-S94.29    41  32.055  4925.77  3.0  0.1  1  1  ITEM6
RBB5-S94.32    41  42.055  4926.31  3.0  0.1  1  1  ITEM6
RBB5-S94.35    41  52.488  4926.15  3.0  0.1  1  1  ITEM6
RBB5-S94.37    41  62.488  4926.74  3.0  0.1  1  1  ITEM6
RBB5-S94.40    41  72.488  4926.62  3.0  0.1  1  1  ITEM6
RBB5-S94.43    41  82.926  4926.34  3.0  0.1  1  1  ITEM6
RBB5-S94.46    41  92.926  4926.52  3.0  0.1  1  1  ITEM6
RBB5-S94.49    41 102.926  4926.63  3.0  0.1  1  1  ITEM6
RBB5-S94.51    41 113.363  4924.75  3.0  0.1  1  1  ITEM6
RBB5-S94.54    41 123.363  4924.19  3.0  0.1  1  1  ITEM6
RBB5-S94.68    41 174.238  4924.34  3.0  0.1  1  1  ITEM6
RBB5-S94.71    41 184.238  4924.29  3.0  0.1  1  1  ITEM6
RBB5-S94.74    41 194.238  4924.14  3.0  0.1  1  1  ITEM6
RBB5-S94.76    41 204.676  4924.14  3.0  0.1  1  1  ITEM6
RBB5-S94.93    42  35.551  4924.43  3.0  0.1  1  1  ITEM6
RBB5-S94.96    42  45.551  4924.37  3.0  0.1  1  1  ITEM6
RBB5-S94.99    42  55.551  4924.25  3.0  0.1  1  1  ITEM6
RBB5-S95.01    42  65.992  4924.28  3.0  0.1  1  1  ITEM6
RBB5-S95.04    42  75.992  4924.24  3.0  0.1  1  1  ITEM6
RBB5-S95.07    42  85.992  4924.25  3.0  0.1  1  1  ITEM6
RBB5-S95.10    42  96.430  4924.31  3.0  0.1  1  1  ITEM6
RBB5-S95.12    42 106.430  4924.50  3.0  0.1  1  1  ITEM6
RBB5-S95.15    42 116.430  4924.59  3.0  0.1  1  1  ITEM6
RBB5-S95.18    42 126.867  4924.96  3.0  0.1  1  1  ITEM6
RBB5-S95.21    43   1.617  4924.91  3.0  0.1  1  1  ITEM6
RBB5-S95.24    43  11.617  4925.40  3.0  0.1  1  1  ITEM6
RBB5-S95.26    43  22.055  4924.92  3.0  0.1  1  1  ITEM6
RBB5-S97.01    46  65.992  4923.84  3.0  0.1  1  1  ITEM6
RBB5-S97.04    46  75.992  4923.72  3.0  0.1  1  1  ITEM6
RBB5-S97.07    46  85.992  4923.90  3.0  0.1  1  1  ITEM6
RBB5-S97.10    46  96.430  4923.89  3.0  0.1  1  1  ITEM6
RBB5-S97.12    46 106.430  4923.82  3.0  0.1  1  1  ITEM6
RBB5-S97.15    46 116.430  4923.96  3.0  0.1  1  1  ITEM6
RBB5-S97.18    46 126.867  4923.84  3.0  0.1  1  1  ITEM6
RBB5-S97.21    47   1.617  4924.03  3.0  0.1  1  1  ITEM6
RBB5-S97.24    47  11.617  4924.82  3.0  0.1  1  1  ITEM6
RBB5-S97.26    47  22.055  4924.80  3.0  0.1  1  1  ITEM6
RBB5-S97.29    47  32.055  4924.43  3.0  0.1  1  1  ITEM6
RBB5-S97.32    47  42.055  4924.97  3.0  0.1  1  1  ITEM6
  RBB5-D       -2   72   40  -52   0.000   0.340   0.380     0.00 0.0  0  0  ITEM3
  4  0.314  5  0.686                                          ITEM4
   1        ITEM5
RBB5-D94.01    40  65.992  4917.69  3.0  0.1  1  1  ITEM6
RBB5-D94.04    40  75.992  4917.63  3.0  0.1  1  1  ITEM6
RBB5-D94.07    40  85.992  4917.60  3.0  0.1  1  1  ITEM6
RBB5-D94.10    40  96.430  4917.54  3.0  0.1  1  1  ITEM6
RBB5-D94.12    40 106.430  4917.49  3.0  0.1  1  1  ITEM6
RBB5-D94.15    40 116.430  4917.47  3.0  0.1  1  1  ITEM6
RBB5-D94.18    40 126.867  4917.44  3.0  0.1  1  1  ITEM6
RBB5-D94.21    41   1.617  4917.50  3.0  0.1  1  1  ITEM6
RBB5-D94.24    41  11.617  4917.63  3.0  0.1  1  1  ITEM6
RBB5-D94.26    41  22.055  4917.74  3.0  0.1  1  1  ITEM6
RBB5-D94.29    41  32.055  4917.79  3.0  0.1  1  1  ITEM6
RBB5-D94.32    41  42.055  4917.91  3.0  0.1  1  1  ITEM6
RBB5-D94.35    41  52.488  4917.87  3.0  0.1  1  1  ITEM6
RBB5-D94.37    41  62.488  4917.98  3.0  0.1  1  1  ITEM6
RBB5-D94.40    41  72.488  4917.93  3.0  0.1  1  1  ITEM6
RBB5-D94.43    41  82.926  4917.84  3.0  0.1  1  1  ITEM6
RBB5-D94.46    41  92.926  4917.58  3.0  0.1  1  1  ITEM6
RBB5-D94.49    41 102.926  4917.42  3.0  0.1  1  1  ITEM6
RBB5-D94.51    41 113.363  4917.05  3.0  0.1  1  1  ITEM6
RBB5-D94.54    41 123.363  4916.93  3.0  0.1  1  1  ITEM6
RBB5-D94.68    41 174.238  4916.98  3.0  0.1  1  1  ITEM6
RBB5-D94.71    41 184.238  4917.05  3.0  0.1  1  1  ITEM6
RBB5-D94.74    41 194.238  4917.09  3.0  0.1  1  1  ITEM6
RBB5-D94.76    41 204.676  4917.11  3.0  0.1  1  1  ITEM6
RBB5-D94.93    42  35.551  4917.56  3.0  0.1  1  1  ITEM6
RBB5-D94.96    42  45.551  4917.52  3.0  0.1  1  1  ITEM6
RBB5-D94.99    42  55.551  4917.50  3.0  0.1  1  1  ITEM6
RBB5-D95.01    42  65.992  4917.50  3.0  0.1  1  1  ITEM6
RBB5-D95.04    42  75.992  4917.48  3.0  0.1  1  1  ITEM6
RBB5-D95.07    42  85.992  4917.45  3.0  0.1  1  1  ITEM6
RBB5-D95.10    42  96.430  4917.43  3.0  0.1  1  1  ITEM6
RBB5-D95.12    42 106.430  4917.42  3.0  0.1  1  1  ITEM6
RBB5-D95.15    42 116.430  4917.35  3.0  0.1  1  1  ITEM6
RBB5-D95.18    42 126.867  4917.41  3.0  0.1  1  1  ITEM6
RBB5-D95.21    43   1.617  4917.36  3.0  0.1  1  1  ITEM6
RBB5-D95.24    43  11.617  4917.44  3.0  0.1  1  1  ITEM6
RBB5-D95.26    43  22.055  4917.38  3.0  0.1  1  1  ITEM6
RBB5-D97.01    46  65.992  4917.14  3.0  0.1  1  1  ITEM6
RBB5-D97.04    46  75.992  4917.05  3.0  0.1  1  1  ITEM6
RBB5-D97.07    46  85.992  4917.06  3.0  0.1  1  1  ITEM6
RBB5-D97.10    46  96.430  4917.00  3.0  0.1  1  1  ITEM6
RBB5-D97.12    46 106.430  4916.96  3.0  0.1  1  1  ITEM6
RBB5-D97.15    46 116.430  4916.97  3.0  0.1  1  1  ITEM6
RBB5-D97.18    46 126.867  4916.93  3.0  0.1  1  1  ITEM6
RBB5-D97.21    47   1.617  4916.89  3.0  0.1  1  1  ITEM6
RBB5-D97.24    47  11.617  4916.96  3.0  0.1  1  1  ITEM6
RBB5-D97.26    47  22.055  4917.06  3.0  0.1  1  1  ITEM6
RBB5-D97.29    47  32.055  4917.09  3.0  0.1  1  1  ITEM6
RBB5-D97.32    47  42.055  4917.27  3.0  0.1  1  1  ITEM6
RBB5-D97.35    47  52.488  4917.30  3.0  0.1  1  1  ITEM6
RBB5-D97.37    47  62.488  4917.35  3.0  0.1  1  1  ITEM6
RBB5-D97.40    47  72.488  4917.46  3.0  0.1  1  1  ITEM6
  SC1          -2   58   49 -111   0.000   0.430  -0.373     0.00 0.0  0  0  ITEM3
  5  0.103  6  0.897                                          ITEM4
   1        ITEM5
SC197.07       46  85.992  4898.73  3.0  0.1  1  1  ITEM6
SC197.10       46  96.430  4899.48  3.0  0.1  1  1  ITEM6
SC197.12       46 106.430  4899.61  3.0  0.1  1  1  ITEM6
SC197.15       46 116.430  4898.72  3.0  0.1  1  1  ITEM6
SC197.18       46 126.867  4898.25  3.0  0.1  1  1  ITEM6
SC197.21       47   1.617  4896.40  3.0  0.1  1  1  ITEM6
SC197.24       47  11.617  4893.27  3.0  0.1  1  1  ITEM6
SC197.26       47  22.055  4893.32  3.0  0.1  1  1  ITEM6
SC197.29       47  32.055  4893.52  3.0  0.1  1  1  ITEM6
SC197.32       47  42.055  4892.80  3.0  0.1  1  1  ITEM6
SC197.35       47  52.488  4891.69  3.0  0.1  1  1  ITEM6
SC197.37       47  62.488  4889.52  3.0  0.1  1  1  ITEM6
SC197.40       47  72.488  4890.25  3.0  0.1  1  1  ITEM6
SC197.43       47  82.926  4887.58  3.0  0.1  1  1  ITEM6
SC197.46       47  92.926  4889.02  3.0  0.1  1  1  ITEM6
SC197.49       47 102.926  4886.28  3.0  0.1  1  1  ITEM6
SC197.51       47 113.363  4883.99  3.0  0.1  1  1  ITEM6
SC197.54       47 123.363  4883.52  3.0  0.1  1  1  ITEM6
SC197.57       47 133.363  4883.46  3.0  0.1  1  1  ITEM6
SC197.60       47 143.801  4887.42  3.0  0.1  1  1  ITEM6
SC197.62       47 153.801  4887.18  3.0  0.1  1  1  ITEM6
SC197.65       47 163.801  4886.75  3.0  0.1  1  1  ITEM6
SC197.68       47 174.238  4885.75  3.0  0.1  1  1  ITEM6
SC197.71       47 184.238  4886.60  3.0  0.1  1  1  ITEM6
SC197.74       47 194.238  4888.17  3.0  0.1  1  1  ITEM6
SC197.76       47 204.676  4888.85  3.0  0.1  1  1  ITEM6
SC197.79       47 214.676  4889.51  3.0  0.1  1  1  ITEM6
SC197.82       47 224.676  4890.95  3.0  0.1  1  1  ITEM6
SC197.85       48   5.113  4890.92  3.0  0.1  1  1  ITEM6
SC197.87       48  15.113  4891.79  3.0  0.1  1  1  ITEM6
SC197.90       48  25.113  4892.42  3.0  0.1  1  1  ITEM6
SC197.93       48  35.551  4893.21  3.0  0.1  1  1  ITEM6
SC197.96       48  45.551  4893.32  3.0  0.1  1  1  ITEM6
SC197.99       48  55.551  4894.00  3.0  0.1  1  1  ITEM6
SC198.01       48  65.992  4893.59  3.0  0.1  1  1  ITEM6
SC198.04       48  75.992  4894.01  3.0  0.1  1  1  ITEM6
SC198.07       48  85.992  4893.69  3.0  0.1  1  1  ITEM6
SC198.10       48  96.430  4893.91  3.0  0.1  1  1  ITEM6
SC198.12       48 106.430  4894.53  3.0  0.1  1  1  ITEM6
SC198.15       48 116.430  4894.24  3.0  0.1  1  1  ITEM6
SC198.18       48 126.867  4893.94  3.0  0.1  1  1  ITEM6
SC198.21       49   1.617  4893.80  3.0  0.1  1  1  ITEM6
SC198.24       49  11.617  4893.76  3.0  0.1  1  1  ITEM6
SC198.26       49  22.055  4893.20  3.0  0.1  1  1  ITEM6
SC198.29       49  32.055  4891.46  3.0  0.1  1  1  ITEM6
SC198.32       49  42.055  4890.19  3.0  0.1  1  1  ITEM6
SC198.35       49  52.488  4889.35  3.0  0.1  1  1  ITEM6
SC198.37       49  62.488  4889.26  3.0  0.1  1  1  ITEM6
SC198.40       49  72.488  4888.36  3.0  0.1  1  1  ITEM6
SC198.43       49  82.926  4886.48  3.0  0.1  1  1  ITEM6
SC198.46       49  92.926  4885.90  3.0  0.1  1  1  ITEM6
SC198.49       49 102.926  4883.67  3.0  0.1  1  1  ITEM6
SC198.51       49 113.363  4883.40  3.0  0.1  1  1  ITEM6
SC198.54       49 123.363  4883.33  3.0  0.1  1  1  ITEM6
SC198.57       49 133.363  4885.40  3.0  0.1  1  1  ITEM6
SC198.60       49 143.801  4885.79  3.0  0.1  1  1  ITEM6
SC198.62       49 153.801  4883.72  3.0  0.1  1  1  ITEM6
SC198.71       49 184.238  4885.74  3.0  0.1  1  1  ITEM6
SC198.74       49 194.238  4883.82  3.0  0.1  1  1  ITEM6
SC198.76       49 204.676  4885.04  3.0  0.1  1  1  ITEM6
SC198.79       49 214.676  4886.13  3.0  0.1  1  1  ITEM6
SC198.82       49 224.676  4888.57  3.0  0.1  1  1  ITEM6
SC198.85       50   5.113  4890.27  3.0  0.1  1  1  ITEM6
SC198.87       50  15.113  4891.57  3.0  0.1  1  1  ITEM6
SC198.90       50  25.113  4891.76  3.0  0.1  1  1  ITEM6
SC198.93       50  35.551  4891.78  3.0  0.1  1  1  ITEM6
SC198.96       50  45.551  4891.95  3.0  0.1  1  1  ITEM6
SC198.99       50  55.551  4893.03  3.0  0.1  1  1  ITEM6
SC199.01       50  65.992  4893.73  3.0  0.1  1  1  ITEM6
SC199.04       50  75.992  4893.11  3.0  0.1  1  1  ITEM6
SC199.07       50  85.992  4893.37  3.0  0.1  1  1  ITEM6
SC199.10       50  96.430  4892.92  3.0  0.1  1  1  ITEM6
SC199.12       50 106.430  4893.47  3.0  0.1  1  1  ITEM6
SC199.15       50 116.430  4893.04  3.0  0.1  1  1  ITEM6
SC199.18       50 126.867  4892.11  3.0  0.1  1  1  ITEM6
SC199.21       51   1.617  4892.26  3.0  0.1  1  1  ITEM6
SC199.24       51  11.617  4892.71  3.0  0.1  1  1  ITEM6
SC199.26       51  22.055  4891.55  3.0  0.1  1  1  ITEM6
SC199.29       51  32.055  4890.27  3.0  0.1  1  1  ITEM6
SC199.32       51  42.055  4889.86  3.0  0.1  1  1  ITEM6
SC199.35       51  52.488  4889.33  3.0  0.1  1  1  ITEM6
SC199.37       51  62.488  4888.20  3.0  0.1  1  1  ITEM6
SC199.40       51  72.488  4888.10  3.0  0.1  1  1  ITEM6
SC199.46       51  92.926  4885.09  3.0  0.1  1  1  ITEM6
SC199.49       51 102.926  4884.38  3.0  0.1  1  1  ITEM6
SC199.51       51 113.363  4883.33  3.0  0.1  1  1  ITEM6
SC199.54       51 123.363  4884.10  3.0  0.1  1  1  ITEM6
SC199.57       51 133.363  4884.61  3.0  0.1  1  1  ITEM6
SC199.60       51 143.801  4885.25  3.0  0.1  1  1  ITEM6
SC199.62       51 153.801  4886.85  3.0  0.1  1  1  ITEM6
SC199.65       51 163.801  4885.17  3.0  0.1  1  1  ITEM6
SC199.68       51 174.238  4885.20  3.0  0.1  1  1  ITEM6
SC199.71       51 184.238  4885.24  3.0  0.1  1  1  ITEM6
SC199.74       51 194.238  4885.25  3.0  0.1  1  1  ITEM6
SC199.76       51 204.676  4885.50  3.0  0.1  1  1  ITEM6
SC199.79       51 214.676  4885.83  3.0  0.1  1  1  ITEM6
SC199.82       51 224.676  4887.38  3.0  0.1  1  1  ITEM6
SC199.85       52   5.113  4888.15  3.0  0.1  1  1  ITEM6
SC199.87       52  15.113  4889.09  3.0  0.1  1  1  ITEM6
SC199.90       52  25.113  4890.09  3.0  0.1  1  1  ITEM6
SC199.93       52  35.551  4892.71  3.0  0.1  1  1  ITEM6
SC199.96       52  45.551  4892.09  3.0  0.1  1  1  ITEM6
SC199.99       52  55.551  4892.54  3.0  0.1  1  1  ITEM6
SC100.01       52  65.992  4892.45  3.0  0.1  1  1  ITEM6
SC100.04       52  75.992  4892.12  3.0  0.1  1  1  ITEM6
SC100.07       52  85.992  4891.94  3.0  0.1  1  1  ITEM6
SC100.10       52  96.430  4892.20  3.0  0.1  1  1  ITEM6
SC100.12       52 106.430  4891.80  3.0  0.1  1  1  ITEM6
SC100.15       52 116.430  4891.86  3.0  0.1  1  1  ITEM6
SC100.18       52 126.867  4891.86  3.0  0.1  1  1  ITEM6
SC100.21       52 135.150  4891.90  3.0  0.1  1  1  ITEM6
  SC2          -2   58   49 -110   0.000   0.430  -0.373     0.00 0.0  0  0  ITEM3
  4  0.210  5  0.790                                          ITEM4
   1        ITEM5
SC297.07       46  85.992  4892.26  3.0  0.1  1  1  ITEM6
SC297.10       46  96.430  4892.98  3.0  0.1  1  1  ITEM6
SC297.12       46 106.430  4893.37  3.0  0.1  1  1  ITEM6
SC297.15       46 116.430  4893.32  3.0  0.1  1  1  ITEM6
SC297.18       46 126.867  4892.82  3.0  0.1  1  1  ITEM6
SC297.21       47   1.617  4892.38  3.0  0.1  1  1  ITEM6
SC297.24       47  11.617  4892.00  3.0  0.1  1  1  ITEM6
SC297.26       47  22.055  4892.64  3.0  0.1  1  1  ITEM6
SC297.29       47  32.055  4892.79  3.0  0.1  1  1  ITEM6
SC297.32       47  42.055  4893.19  3.0  0.1  1  1  ITEM6
SC297.35       47  52.488  4892.63  3.0  0.1  1  1  ITEM6
SC297.37       47  62.488  4891.59  3.0  0.1  1  1  ITEM6
SC297.40       47  72.488  4891.20  3.0  0.1  1  1  ITEM6
SC297.43       47  82.926  4890.58  3.0  0.1  1  1  ITEM6
SC297.46       47  92.926  4890.56  3.0  0.1  1  1  ITEM6
SC297.49       47 102.926  4889.45  3.0  0.1  1  1  ITEM6
SC297.51       47 113.363  4888.69  3.0  0.1  1  1  ITEM6
SC297.54       47 123.363  4888.82  3.0  0.1  1  1  ITEM6
SC297.57       47 133.363  4889.07  3.0  0.1  1  1  ITEM6
SC297.60       47 143.801  4889.95  3.0  0.1  1  1  ITEM6
SC297.65       47 163.801  4889.49  3.0  0.1  1  1  ITEM6
SC297.71       47 184.238  4887.73  3.0  0.1  1  1  ITEM6
SC297.74       47 194.238  5353.48  3.0  0.1  1  1  ITEM6
SC297.82       47 224.676  4891.03  3.0  0.1  1  1  ITEM6
SC297.85       48   5.113  4891.37  3.0  0.1  1  1  ITEM6
SC297.87       48  15.113  4892.00  3.0  0.1  1  1  ITEM6
SC297.90       48  25.113  4892.15  3.0  0.1  1  1  ITEM6
SC297.93       48  35.551  4892.55  3.0  0.1  1  1  ITEM6
SC297.96       48  45.551  4892.76  3.0  0.1  1  1  ITEM6
SC297.99       48  55.551  4892.92  3.0  0.1  1  1  ITEM6
SC298.01       48  65.992  4892.83  3.0  0.1  1  1  ITEM6
SC298.04       48  75.992  4892.61  3.0  0.1  1  1  ITEM6
SC298.07       48  85.992  4892.58  3.0  0.1  1  1  ITEM6
SC298.10       48  96.430  4892.97  3.0  0.1  1  1  ITEM6
SC298.12       48 106.430  4893.21  3.0  0.1  1  1  ITEM6
SC298.15       48 116.430  4893.06  3.0  0.1  1  1  ITEM6
SC298.18       48 126.867  4893.22  3.0  0.1  1  1  ITEM6
SC298.21       49   1.617  4893.44  3.0  0.1  1  1  ITEM6
SC298.24       49  11.617  4893.73  3.0  0.1  1  1  ITEM6
SC298.26       49  22.055  4893.40  3.0  0.1  1  1  ITEM6
SC298.29       49  32.055  4893.25  3.0  0.1  1  1  ITEM6
SC298.32       49  42.055  4893.39  3.0  0.1  1  1  ITEM6
SC298.35       49  52.488  4893.09  3.0  0.1  1  1  ITEM6
SC298.37       49  62.488  4891.90  3.0  0.1  1  1  ITEM6
SC298.40       49  72.488  4891.45  3.0  0.1  1  1  ITEM6
SC298.43       49  82.926  4890.74  3.0  0.1  1  1  ITEM6
SC298.46       49  92.926  4890.41  3.0  0.1  1  1  ITEM6
SC298.49       49 102.926  4889.77  3.0  0.1  1  1  ITEM6
SC298.51       49 113.363  4889.89  3.0  0.1  1  1  ITEM6
SC298.54       49 123.363  4889.33  3.0  0.1  1  1  ITEM6
SC298.57       49 133.363  4889.74  3.0  0.1  1  1  ITEM6
SC298.60       49 143.801  4889.28  3.0  0.1  1  1  ITEM6
SC298.62       49 153.801  4889.14  3.0  0.1  1  1  ITEM6
SC298.65       49 163.801  4889.42  3.0  0.1  1  1  ITEM6
SC298.68       49 174.238  4889.12  3.0  0.1  1  1  ITEM6
SC298.71       49 184.238  4888.91  3.0  0.1  1  1  ITEM6
SC298.74       49 194.238  4889.01  3.0  0.1  1  1  ITEM6
SC298.76       49 204.676  4889.51  3.0  0.1  1  1  ITEM6
SC298.79       49 214.676  4889.89  3.0  0.1  1  1  ITEM6
SC298.82       49 224.676  4890.71  3.0  0.1  1  1  ITEM6
SC298.85       50   5.113  4890.78  3.0  0.1  1  1  ITEM6
SC298.87       50  15.113  4890.81  3.0  0.1  1  1  ITEM6
SC298.90       50  25.113  4890.85  3.0  0.1  1  1  ITEM6
SC298.93       50  35.551  4891.46  3.0  0.1  1  1  ITEM6
SC298.96       50  45.551  4891.58  3.0  0.1  1  1  ITEM6
SC298.99       50  55.551  4892.12  3.0  0.1  1  1  ITEM6
SC299.01       50  65.992  4892.15  3.0  0.1  1  1  ITEM6
SC299.04       50  75.992  4891.85  3.0  0.1  1  1  ITEM6
SC299.07       50  85.992  4891.97  3.0  0.1  1  1  ITEM6
SC299.10       50  96.430  4892.03  3.0  0.1  1  1  ITEM6
SC299.12       50 106.430  4891.90  3.0  0.1  1  1  ITEM6
SC299.15       50 116.430  4891.74  3.0  0.1  1  1  ITEM6
SC299.18       50 126.867  4891.83  3.0  0.1  1  1  ITEM6
SC299.21       51   1.617  4892.06  3.0  0.1  1  1  ITEM6
SC299.24       51  11.617  4892.34  3.0  0.1  1  1  ITEM6
SC299.26       51  22.055  4891.65  3.0  0.1  1  1  ITEM6
SC299.29       51  32.055  4891.00  3.0  0.1  1  1  ITEM6
SC299.32       51  42.055  4890.85  3.0  0.1  1  1  ITEM6
SC299.35       51  52.488  4890.74  3.0  0.1  1  1  ITEM6
SC299.37       51  62.488  4890.08  3.0  0.1  1  1  ITEM6
SC299.40       51  72.488  4890.08  3.0  0.1  1  1  ITEM6
SC299.43       51  82.926  4889.48  3.0  0.1  1  1  ITEM6
SC299.46       51  92.926  4889.11  3.0  0.1  1  1  ITEM6
SC299.49       51 102.926  4889.01  3.0  0.1  1  1  ITEM6
SC299.51       51 113.363  4888.63  3.0  0.1  1  1  ITEM6
SC299.54       51 123.363  4888.83  3.0  0.1  1  1  ITEM6
SC299.57       51 133.363  4888.61  3.0  0.1  1  1  ITEM6
SC299.60       51 143.801  4889.42  3.0  0.1  1  1  ITEM6
SC299.62       51 153.801  4889.14  3.0  0.1  1  1  ITEM6
SC299.65       51 163.801  4888.60  3.0  0.1  1  1  ITEM6
SC299.68       51 174.238  4888.40  3.0  0.1  1  1  ITEM6
SC299.71       51 184.238  4888.33  3.0  0.1  1  1  ITEM6
SC299.74       51 194.238  4888.33  3.0  0.1  1  1  ITEM6
SC299.76       51 204.676  4888.23  3.0  0.1  1  1  ITEM6
SC299.79       51 214.676  4888.82  3.0  0.1  1  1  ITEM6
SC299.82       51 224.676  4889.23  3.0  0.1  1  1  ITEM6
SC299.85       52   5.113  4889.61  3.0  0.1  1  1  ITEM6
SC299.87       52  15.113  4889.94  3.0  0.1  1  1  ITEM6
SC299.90       52  25.113  4890.06  3.0  0.1  1  1  ITEM6
SC299.93       52  35.551  4890.25  3.0  0.1  1  1  ITEM6
SC299.96       52  45.551  4890.51  3.0  0.1  1  1  ITEM6
SC299.99       52  55.551  4890.54  3.0  0.1  1  1  ITEM6
SC200.01       52  65.992  4890.93  3.0  0.1  1  1  ITEM6
SC200.04       52  75.992  4890.79  3.0  0.1  1  1  ITEM6
SC200.07       52  85.992  4890.92  3.0  0.1  1  1  ITEM6
SC200.10       52  96.430  4890.78  3.0  0.1  1  1  ITEM6
SC200.12       52 106.430  4890.37  3.0  0.1  1  1  ITEM6
SC200.15       52 116.430  4890.47  3.0  0.1  1  1  ITEM6
SC200.18       52 126.867  4889.91  3.0  0.1  1  1  ITEM6
SC200.21       52 135.150  4889.88  3.0  0.1  1  1  ITEM6
  DS1          -2   65   47 -110   0.000   0.043  -0.030     0.00 0.0  0  0  ITEM3
  6  0.743  7  0.257                                          ITEM4
   1        ITEM5
DS196.85       46   5.113  4876.10  3.0  0.1  1  1  ITEM6
DS196.87       46  15.113  4876.91  3.0  0.1  1  1  ITEM6
DS196.90       46  25.113  4878.35  3.0  0.1  1  1  ITEM6
DS196.93       46  35.551  4878.64  3.0  0.1  1  1  ITEM6
DS196.96       46  45.551  4877.52  3.0  0.1  1  1  ITEM6
DS196.99       46  55.551  4878.67  3.0  0.1  1  1  ITEM6
DS197.01       46  65.992  4880.47  3.0  0.1  1  1  ITEM6
DS197.04       46  75.992  4880.58  3.0  0.1  1  1  ITEM6
DS197.07       46  85.992  4880.47  3.0  0.1  1  1  ITEM6
DS197.10       46  96.430  4880.44  3.0  0.1  1  1  ITEM6
DS197.12       46 106.430  4880.55  3.0  0.1  1  1  ITEM6
DS197.15       46 116.430  4880.32  3.0  0.1  1  1  ITEM6
DS197.18       46 126.867  4880.23  3.0  0.1  1  1  ITEM6
DS197.21       47   1.617  4878.87  3.0  0.1  1  1  ITEM6
DS197.24       47  11.617  4877.21  3.0  0.1  1  1  ITEM6
DS197.26       47  22.055  4876.99  3.0  0.1  1  1  ITEM6
DS197.29       47  32.055  4876.93  3.0  0.1  1  1  ITEM6
DS197.32       47  42.055  4876.39  3.0  0.1  1  1  ITEM6
DS197.35       47  52.488  4875.91  3.0  0.1  1  1  ITEM6
DS197.37       47  62.488  4873.66  3.0  0.1  1  1  ITEM6
DS197.40       47  72.488  4872.79  3.0  0.1  1  1  ITEM6
DS197.43       47  82.926  4871.55  3.0  0.1  1  1  ITEM6
DS197.46       47  92.926  4870.72  3.0  0.1  1  1  ITEM6
DS197.49       47 102.926  4869.60  3.0  0.1  1  1  ITEM6
DS197.51       47 113.363  4867.86  3.0  0.1  1  1  ITEM6
DS197.54       47 123.363  4867.05  3.0  0.1  1  1  ITEM6
DS197.57       47 133.363  4866.71  3.0  0.1  1  1  ITEM6
DS197.60       47 143.801  4869.27  3.0  0.1  1  1  ITEM6
DS197.62       47 153.801  4870.23  3.0  0.1  1  1  ITEM6
DS197.65       47 163.801  4869.71  3.0  0.1  1  1  ITEM6
DS197.68       47 174.238  4868.72  3.0  0.1  1  1  ITEM6
DS197.71       47 184.238  4868.69  3.0  0.1  1  1  ITEM6
DS197.74       47 194.238  4870.09  3.0  0.1  1  1  ITEM6
DS197.76       47 204.676  4871.57  3.0  0.1  1  1  ITEM6
DS197.79       47 214.676  4872.61  3.0  0.1  1  1  ITEM6
DS197.82       47 224.676  4873.32  3.0  0.1  1  1  ITEM6
DS197.85       48   5.113  4874.54  3.0  0.1  1  1  ITEM6
DS197.87       48  15.113  4875.45  3.0  0.1  1  1  ITEM6
DS197.90       48  25.113  4876.36  3.0  0.1  1  1  ITEM6
DS197.93       48  35.551  4877.70  3.0  0.1  1  1  ITEM6
DS197.96       48  45.551  4878.26  3.0  0.1  1  1  ITEM6
DS197.99       48  55.551  4879.73  3.0  0.1  1  1  ITEM6
DS198.01       48  65.992  4879.28  3.0  0.1  1  1  ITEM6
DS198.04       48  75.992  4878.92  3.0  0.1  1  1  ITEM6
DS198.07       48  85.992  4878.32  3.0  0.1  1  1  ITEM6
DS198.10       48  96.430  4877.88  3.0  0.1  1  1  ITEM6
DS198.12       48 106.430  4879.28  3.0  0.1  1  1  ITEM6
DS198.15       48 116.430  4880.41  3.0  0.1  1  1  ITEM6
DS198.18       48 126.867  4879.35  3.0  0.1  1  1  ITEM6
DS198.21       49   1.617  4879.00  3.0  0.1  1  1  ITEM6
DS198.24       49  11.617  4878.35  3.0  0.1  1  1  ITEM6
DS198.26       49  22.055  4877.23  3.0  0.1  1  1  ITEM6
DS198.29       49  32.055  4875.53  3.0  0.1  1  1  ITEM6
DS198.32       49  42.055  4874.08  3.0  0.1  1  1  ITEM6
DS198.35       49  52.488  4873.10  3.0  0.1  1  1  ITEM6
DS198.37       49  62.488  4871.19  3.0  0.1  1  1  ITEM6
DS198.40       49  72.488  4869.68  3.0  0.1  1  1  ITEM6