# Head-Observation Package of the Observation Process of MODFLOW-2000.
# The observations with 4-character IDs
#  weights around the basin margens are reduced so they do not overly influence
#   Because of the grid size (1000 m X 1000 m) and the little information at th
      1328       821         3        33  5.00000E+03 NH,MOBS,MAXM,IUHOBSV,HOBDRY
  1.00000E+00  TOMULTH
A001            2    7   35    1  0.000000E+00  2.940000E-01 -4.990000E-01  5.521500E+03
A002            1    7   71    1  0.000000E+00  4.910000E-01  2.400000E-01  5.235430E+03
A003            3    9   72    1  0.000000E+00 -1.230000E-01  2.510000E-01  5.249490E+03
A005            2    9   36    1  0.000000E+00  4.870000E-01  2.600000E-01  5.553020E+03
A006            3   10   33    1  0.000000E+00 -4.200000E-01 -1.810000E-01  5.490000E+03
A007            2    9   72    1  0.000000E+00  3.420000E-01 -1.240000E-01  5.237010E+03
A008            2   10   73    1  0.000000E+00 -4.400000E-02 -3.680000E-01  5.246440E+03
A013            1   12   70    1  0.000000E+00 -1.800000E-01  1.280000E-01  5.207330E+03
A014            2   12   70    1  0.000000E+00  1.900000E-01  3.560000E-01  5.200000E+03
A017            1   13   76    1  0.000000E+00  4.950000E-01 -4.620000E-01  5.359210E+03
A019            1   14   36    1  0.000000E+00 -4.000000E-03  1.610000E-01  5.380000E+03
A021            1   15   49    1  0.000000E+00 -1.210000E-01 -7.100000E-02  5.228000E+03
A022            1   15   46    1  0.000000E+00  6.900000E-02 -3.130000E-01  5.320000E+03
A024            2   16   35    1  0.000000E+00 -1.810000E-01 -1.710000E-01  5.385000E+03
A025            1   16   30    1  0.000000E+00  4.980000E-01  4.050000E-01  5.441000E+03
A028            1   18   36    1  0.000000E+00  3.820000E-01  2.880000E-01  5.384900E+03
A032            1   19   36    1  0.000000E+00  2.780000E-01 -1.890000E-01  5.389910E+03
A039            2   23   38    1  0.000000E+00  7.600000E-02  4.280000E-01  5.299960E+03
A041            1   23   33    1  0.000000E+00  1.700000E-01 -4.830000E-01  5.438000E+03
A043            1   24   48    1  0.000000E+00  2.200000E-02  3.410000E-01  5.207000E+03
A045            3   25   41    1  0.000000E+00  2.000000E-02 -4.000000E-03  5.290600E+03
A047            4   25   69    1  0.000000E+00 -1.420000E-01  4.020000E-01  5.148800E+03
A049            1   27   41    1  0.000000E+00 -2.500000E-01  1.230000E-01  5.266000E+03
A054            1   28   45    1  0.000000E+00  1.100000E-02  2.020000E-01  5.220670E+03
A056            1   29   41    1  0.000000E+00  4.370000E-01  3.770000E-01  5.250000E+03
A057            1   29   56    1  0.000000E+00  3.190000E-01 -2.300000E-02  5.083600E+03
A060            3   31   63    1  0.000000E+00  3.370000E-01 -1.800000E-02  5.205000E+03
A066            1   38   49    1  0.000000E+00  2.910000E-01 -5.500000E-02  5.073300E+03
A068            1   39   54    1  0.000000E+00  8.300000E-02  3.900000E-01  5.063440E+03
A069            4   39   30    1  0.000000E+00  4.780000E-01 -1.050000E-01  4.972000E+03
A074            1   44   42    1  0.000000E+00 -2.940000E-01  4.490000E-01  5.008000E+03
A076            1   46   53    1  0.000000E+00 -3.030000E-01 -2.590000E-01  5.063000E+03
A079            5   46   27    1  0.000000E+00  3.960000E-01 -5.900000E-02  4.955000E+03
A084            2   52   44    1  0.000000E+00 -2.660000E-01  4.800000E-02  4.989380E+03
A094            1   56   53    1  0.000000E+00 -2.040000E-01  2.170000E-01  4.989500E+03
A095            2   56   43    1  0.000000E+00  4.610000E-01  4.980000E-01  4.978000E+03
A097            1   57   36    1  0.000000E+00  2.690000E-01  4.540000E-01  4.967400E+03
A101            1   58   43    1  0.000000E+00 -1.180000E-01  2.970000E-01  4.983000E+03
A103            1   58   51    1  0.000000E+00  4.570000E-01  1.020000E-01  4.967100E+03
A107            2   59   42    1  0.000000E+00 -1.290000E-01  4.900000E-01  4.969000E+03
A116            3   60   44    1  0.000000E+00 -2.040000E-01 -1.450000E-01  4.968970E+03
A120            2   60   44    1  0.000000E+00  7.400000E-02 -1.800000E-02  4.970000E+03
A127            5   60   40    1  0.000000E+00  4.800000E-01 -8.500000E-02  4.953000E+03
A142            3   63   44    1  0.000000E+00 -3.000000E-01 -1.160000E-01  4.948630E+03
A143            3   63   40    1  0.000000E+00 -1.730000E-01 -2.600000E-01  4.943460E+03
A145            2   63   41    1  0.000000E+00  1.350000E-01  2.060000E-01  4.943740E+03
A146            1   63   46    1  0.000000E+00  2.520000E-01  3.360000E-01  4.965300E+03
A149            1   64   46    1  0.000000E+00 -4.990000E-01 -4.980000E-01  4.963400E+03
A153            1   64   39    1  0.000000E+00  9.400000E-02 -4.200000E-02  4.946780E+03
A154            3   65   43    1  0.000000E+00 -3.840000E-01 -3.020000E-01  4.930600E+03
A155            1   65   47    1  0.000000E+00 -2.660000E-01  2.980000E-01  4.957500E+03
A157            1   65   48    1  0.000000E+00  3.510000E-01 -3.220000E-01  4.961000E+03
A168            3   66   26    1  0.000000E+00  4.410000E-01  2.200000E-01  4.913000E+03
A169            4   66   26    1  0.000000E+00  4.410000E-01  2.200000E-01  4.916000E+03
A171            5   67   34    1  0.000000E+00  3.390000E-01 -1.460000E-01  4.924450E+03
A177            4   68   50    1  0.000000E+00  9.500000E-02  1.600000E-01  4.946700E+03
A178            4   68   52    1  0.000000E+00  3.690000E-01  1.070000E-01  4.967700E+03
A181            5   69   43    1  0.000000E+00 -3.070000E-01 -1.200000E-01  4.923330E+03
A187            4   70   46    1  0.000000E+00 -3.530000E-01 -4.640000E-01  4.945450E+03
A190            4   70   52    1  0.000000E+00  2.230000E-01  8.600000E-02  4.962800E+03
A191            4   71   50    1  0.000000E+00 -3.710000E-01 -4.670000E-01  4.952000E+03
A193            2   71   43    1  0.000000E+00  1.640000E-01 -2.950000E-01  4.910000E+03
A196            4   72   51    1  0.000000E+00 -1.700000E-01  4.320000E-01  4.978500E+03
A200            5   73   48    1  0.000000E+00 -4.220000E-01 -2.600000E-01  4.950000E+03
A201            5   73   22    1  0.000000E+00 -1.380000E-01  2.440000E-01  4.932000E+03
A203            1   74   22    1  0.000000E+00 -2.430000E-01 -2.380000E-01  4.923000E+03
A206            1   75   21    1  0.000000E+00 -2.870000E-01 -3.520000E-01  4.918000E+03
A207            1   75   22    1  0.000000E+00 -1.620000E-01  1.400000E-01  4.929000E+03
A208            3   75   55    1  0.000000E+00 -4.280000E-01 -3.750000E-01  4.964000E+03
A214            1   77   30    1  0.000000E+00  3.770000E-01  5.800000E-02  4.871400E+03
A218            2   80   36    1  0.000000E+00  3.000000E-03 -1.450000E-01  4.895550E+03
A222            1   81   29    1  0.000000E+00  4.540000E-01  4.490000E-01  4.887710E+03
A224            1   84   51    1  0.000000E+00  4.950000E-01 -2.400000E-02  5.327300E+03
A228            1   86   18    1  0.000000E+00 -3.570000E-01 -2.550000E-01  4.975400E+03
A229            1   85   42    1  0.000000E+00  4.650000E-01  3.410000E-01  4.879300E+03
A230            1   86   19    1  0.000000E+00 -1.690000E-01  4.420000E-01  4.842500E+03
A231            1   86   25    1  0.000000E+00  3.000000E-01 -2.900000E-01  4.870500E+03
A234            1   89   16    1  0.000000E+00  2.530000E-01 -3.500000E-02  4.970800E+03
A235            1   89   43    1  0.000000E+00  1.100000E-01 -4.280000E-01  4.863530E+03
A236            1   89   16    1  0.000000E+00  4.090000E-01  3.960000E-01  4.970700E+03
A237            2   90   10    1  0.000000E+00 -3.900000E-01 -1.930000E-01  4.991400E+03
A241            1   92   45    1  0.000000E+00 -2.980000E-01  5.900000E-02  4.842500E+03
A243            4   94   33    1  0.000000E+00 -3.760000E-01 -6.000000E-03  4.852000E+03
A247            1   95   12    1  0.000000E+00 -7.200000E-02 -2.800000E-01  4.983450E+03
A254            1   96   18    1  0.000000E+00  2.060000E-01 -2.720000E-01  4.841200E+03
A256            2   97   49    1  0.000000E+00 -3.940000E-01  3.260000E-01  4.901600E+03
A259            1   98   12    1  0.000000E+00 -1.070000E-01 -3.630000E-01  4.973890E+03
A260            1   99   46    1  0.000000E+00  8.200000E-02  3.880000E-01  4.843230E+03
A264            1  100   23    1  0.000000E+00  3.840000E-01  4.290000E-01  4.832310E+03
A265            3  100   43    1  0.000000E+00  4.140000E-01  4.100000E-02  4.830000E+03
A266            3  101   33    1  0.000000E+00  7.000000E-03 -4.370000E-01  4.827950E+03
A272            1  103   11    1  0.000000E+00  4.810000E-01 -4.920000E-01  5.043510E+03
A274            1  104   16    1  0.000000E+00  8.000000E-02  6.500000E-02  4.839320E+03
A275            1  104   12    1  0.000000E+00  1.340000E-01  3.330000E-01  4.845200E+03
A276            2  104   41    1  0.000000E+00  6.100000E-02  3.440000E-01  4.824800E+03
A281            3  106   31    1  0.000000E+00 -3.610000E-01  2.930000E-01  4.815200E+03
A283            3  107   31    1  0.000000E+00 -6.300000E-02  3.180000E-01  4.808820E+03
A285            3  107   30    1  0.000000E+00  1.840000E-01  2.300000E-02  4.812880E+03
A290            1  113   18    1  0.000000E+00 -4.230000E-01  8.100000E-02  4.829270E+03
A291            4  113   37    1  0.000000E+00  5.200000E-02 -3.220000E-01  4.800000E+03
A298            1  116   30    1  0.000000E+00  4.500000E-01 -2.340000E-01  4.800100E+03
A305            1  121   24    1  0.000000E+00  3.880000E-01  2.970000E-01  4.797630E+03
A307            1  122   20    1  0.000000E+00 -3.090000E-01 -4.080000E-01  4.821570E+03
A308            1  122   17    1  0.000000E+00  8.800000E-02 -2.570000E-01  4.810210E+03
A315            1  127   38    1  0.000000E+00 -4.900000E-02 -9.600000E-02  4.788410E+03
A323            2  135   14    1  0.000000E+00 -4.080000E-01  1.240000E-01  4.773000E+03
A328            1  138   18    1  0.000000E+00 -3.300000E-02  3.710000E-01  4.765080E+03
A338            3  152   14    1  0.000000E+00 -4.830000E-01 -4.980000E-01  4.883680E+03
A340            1  153   17    1  0.000000E+00 -4.260000E-01 -4.000000E-03  4.814480E+03
A004           -2    9   71    1  0.000000E+00  3.800000E-02 -2.560000E-01  5.222370E+03
    1  4.45000E-01    2  5.55000E-01
A009           -2   10   71    1  0.000000E+00  1.180000E-01  0.000000E+00  5.222100E+03
    1  3.82000E-01    2  6.18000E-01
A010           -2   10   70    1  0.000000E+00  4.290000E-01  3.730000E-01  5.214020E+03
    1  6.68000E-01    2  3.32000E-01
A011           -2   11   72    1  0.000000E+00 -2.690000E-01  1.330000E-01  5.236210E+03
    1  1.15000E-01    2  8.85000E-01
A012           -2   12   34    1  0.000000E+00 -1.040000E-01 -1.760000E-01  5.471700E+03
    2  5.25000E-01    3  4.75000E-01
A015           -2   13   32    1  0.000000E+00 -4.860000E-01 -6.100000E-02  5.450000E+03
    2  2.11000E-01    3  7.89000E-01
A016           -2   13   38    1  0.000000E+00  6.900000E-02 -3.320000E-01  5.383000E+03
    1  8.44000E-01    2  1.56000E-01
A018           -2   14   35    1  0.000000E+00 -3.000000E-03  2.810000E-01  5.409000E+03
    1  1.30000E-01    2  8.70000E-01
A020           -2   14   42    1  0.000000E+00  3.630000E-01  2.180000E-01  5.330000E+03
    2  4.88000E-01    3  5.12000E-01
A023           -2   15   39    1  0.000000E+00  2.610000E-01  4.790000E-01  5.393730E+03
    1  5.37000E-01    2  4.63000E-01
A026           -2   17   67    1  0.000000E+00 -4.200000E-02  4.590000E-01  5.179000E+03
    1  8.10000E-01    2  1.90000E-01
A027           -2   18   37    1  0.000000E+00 -2.670000E-01  2.430000E-01  5.373000E+03
    3  8.01000E-01    4  1.99000E-01
A029           -2   18   36    1  0.000000E+00  4.130000E-01  3.130000E-01  5.375000E+03
    2  3.68000E-01    3  6.32000E-01
A030           -2   19   36    1  0.000000E+00 -4.630000E-01  4.640000E-01  5.390000E+03
    3  6.15000E-01    4  3.85000E-01
A031           -2   19   72    1  0.000000E+00 -4.550000E-01  2.430000E-01  5.221890E+03
    1  5.08000E-01    2  4.92000E-01
A033           -2   19   70    1  0.000000E+00  3.900000E-01 -4.690000E-01  5.159000E+03
    4  3.43000E-01    5  6.57000E-01
A034           -2   20   35    1  0.000000E+00 -2.270000E-01 -4.400000E-02  5.382420E+03
    4  1.72000E-01    5  8.28000E-01
A035           -2   20   35    1  0.000000E+00 -2.270000E-01 -4.400000E-02  5.377520E+03
    3  5.63000E-01    4  4.37000E-01
A036           -2   20   35    1  0.000000E+00 -2.270000E-01 -4.400000E-02  5.381420E+03
    4  8.00000E-01    5  2.00000E-01
A037           -2   20   46    1  0.000000E+00  4.430000E-01 -3.560000E-01  5.155000E+03
    2  8.18000E-01    3  1.82000E-01
A038           -2   22   39    1  0.000000E+00 -4.990000E-01 -2.460000E-01  5.333400E+03
    2  4.26000E-01    3  5.74000E-01
A040           -2   23   41    1  0.000000E+00  7.400000E-02  3.460000E-01  5.300530E+03
    1  8.36000E-01    2  1.64000E-01
A042           -2   24   46    1  0.000000E+00 -4.380000E-01  7.600000E-02  5.140000E+03
    1  5.78000E-01    2  4.22000E-01
A044           -2   25   41    1  0.000000E+00  2.000000E-02 -4.000000E-03  5.305860E+03
    4  7.89000E-01    5  2.11000E-01
A046           -2   25   41    1  0.000000E+00  2.000000E-02 -4.000000E-03  5.315450E+03
    4  1.20000E-01    5  8.80000E-01
A048           -2   27   63    1  0.000000E+00 -4.800000E-01 -4.870000E-01  5.142000E+03
    4  5.00000E-01    5  5.00000E-01
A050           -2   27   46    1  0.000000E+00  2.380000E-01 -9.500000E-02  5.212270E+03
    2  6.51000E-01    3  3.49000E-01
A051           -2   27   60    1  0.000000E+00  3.920000E-01  2.260000E-01  5.127000E+03
    1  6.21000E-01    2  3.79000E-01
A052           -2   27   60    1  0.000000E+00  3.920000E-01  2.260000E-01  5.135200E+03
    4  3.42000E-01    5  6.58000E-01
A053           -2   28   37    1  0.000000E+00 -2.590000E-01  5.000000E-01  5.233000E+03
    1  7.22000E-01    2  2.78000E-01
A055           -2   29   65    1  0.000000E+00 -2.020000E-01 -2.140000E-01  5.130000E+03
    3  6.73000E-01    4  3.27000E-01
A058           -2   30   53    1  0.000000E+00 -4.580000E-01 -2.190000E-01  5.085000E+03
    1  4.24000E-01    2  5.76000E-01
A059           -2   30   64    1  0.000000E+00  2.230000E-01 -4.680000E-01  5.219890E+03
    2  8.60000E-01    3  1.40000E-01
A061           -2   32   46    1  0.000000E+00  1.190000E-01 -8.800000E-02  5.139940E+03
    1  1.16000E-01    2  8.84000E-01
A062           -2   32   59    1  0.000000E+00  4.920000E-01 -1.440000E-01  5.096000E+03
    4  4.05000E-01    5  5.95000E-01
A063           -2   33   59    1  0.000000E+00 -4.600000E-02  2.860000E-01  5.121000E+03
    4  6.53000E-01    5  3.47000E-01
A064           -2   35   59    1  0.000000E+00 -2.520000E-01 -3.390000E-01  5.087590E+03
    3  7.02000E-01    4  2.98000E-01
A065           -2   38   50    1  0.000000E+00  7.300000E-02  1.040000E-01  5.036740E+03
    1  6.48000E-01    2  3.52000E-01
A070           -2   40   54    1  0.000000E+00 -2.100000E-02  1.140000E-01  5.050000E+03
    3  7.43000E-01    4  2.57000E-01
A071           -2   40   50    1  0.000000E+00  1.430000E-01 -3.970000E-01  5.044450E+03
    1  4.04000E-01    2  5.96000E-01
A072           -2   42   51    1  0.000000E+00 -3.460000E-01 -1.330000E-01  5.039000E+03
    4  7.46000E-01    5  2.54000E-01
A073           -2   42   35    1  0.000000E+00 -8.100000E-02 -1.400000E-02  4.956370E+03
    5  8.70000E-01    6  1.30000E-01
A075           -2   45   28    1  0.000000E+00 -2.100000E-01  2.280000E-01  4.953850E+03
    4  4.55000E-01    5  5.45000E-01
A077           -2   46   47    1  0.000000E+00  1.700000E-02 -3.110000E-01  5.013720E+03
    1  4.01000E-01    2  5.99000E-01
A078           -2   46   47    1  0.000000E+00  1.700000E-02 -3.110000E-01  5.016890E+03
    1  3.80000E-01    2  6.20000E-01
A080           -2   47   46    1  0.000000E+00 -3.650000E-01  1.850000E-01  5.021880E+03
    1  7.50000E-01    2  2.50000E-01
A081           -2   48   47    1  0.000000E+00 -6.800000E-02 -3.590000E-01  5.008000E+03
    1  5.78000E-01    2  4.22000E-01
A082           -2   48   50    1  0.000000E+00  1.730000E-01  1.480000E-01  5.035470E+03
    3  1.62000E-01    4  8.38000E-01
A083           -2   50   53    1  0.000000E+00  2.100000E-02 -2.500000E-01  4.995020E+03
    1  7.82000E-01    2  2.18000E-01
A085           -2   52   43    1  0.000000E+00  4.500000E-02 -3.150000E-01  4.987800E+03
    2  4.95000E-01    3  5.05000E-01
A086           -2   54   43    1  0.000000E+00  2.100000E-02  2.680000E-01  4.987700E+03
    2  4.73000E-01    3  5.27000E-01
A087           -2   55   43    1  0.000000E+00  2.250000E-01  4.960000E-01  4.983980E+03
    2  7.58000E-01    3  2.42000E-01
A088           -2   55   30    1  0.000000E+00  4.160000E-01  3.690000E-01  4.946600E+03
    4  1.88000E-01    5  8.12000E-01
A089           -2   55   30    1  0.000000E+00  4.160000E-01  3.690000E-01  4.945500E+03
    5  6.54000E-01    6  3.46000E-01
A090           -2   55   30    1  0.000000E+00  4.160000E-01  3.690000E-01  4.951000E+03
    4  2.31000E-01    5  7.69000E-01
A091           -2   55   30    1  0.000000E+00  4.470000E-01  4.190000E-01  4.962400E+03
    1  7.37000E-01    2  2.63000E-01
A092           -2   55   41    1  0.000000E+00  4.440000E-01  7.300000E-02  4.982000E+03
    2  8.34000E-01    3  1.66000E-01
A096           -2   57   39    1  0.000000E+00  5.200000E-02  5.400000E-02  4.971400E+03
    1  7.37000E-01    2  2.63000E-01
A098           -2   58   29    1  0.000000E+00 -4.840000E-01  8.000000E-02  4.943300E+03
    4  2.26000E-01    5  7.74000E-01
A099           -2   57   42    1  0.000000E+00  4.510000E-01 -3.190000E-01  4.975000E+03
    1  1.97000E-01    2  8.03000E-01
A100           -2   58   45    1  0.000000E+00 -2.440000E-01  3.170000E-01  4.968050E+03
    2  3.46000E-01    3  6.54000E-01
A102           -2   58   43    1  0.000000E+00  6.700000E-02  3.230000E-01  4.980500E+03
    1  4.05000E-01    2  5.95000E-01
A104           -2   59   29    1  0.000000E+00 -2.790000E-01 -3.750000E-01  4.942000E+03
    1  2.22000E-01    2  7.78000E-01
A105           -2   59   44    1  0.000000E+00 -3.160000E-01  4.350000E-01  4.973350E+03
    2  3.74000E-01    3  6.26000E-01
A106           -2   59   42    1  0.000000E+00 -1.290000E-01  4.900000E-01  4.969000E+03
    1  4.27000E-01    2  5.73000E-01
A108           -2   59   47    1  0.000000E+00 -1.040000E-01  1.370000E-01  4.956100E+03
    1  3.23000E-01    2  6.77000E-01
A109           -2   59   26    1  0.000000E+00  1.520000E-01  3.770000E-01  4.943890E+03
    4  8.09000E-01    5  1.91000E-01
A110           -2   59   26    1  0.000000E+00  1.520000E-01  3.770000E-01  4.943890E+03
    4  8.09000E-01    5  1.91000E-01
A111           -2   59   41    1  0.000000E+00  4.280000E-01  2.030000E-01  4.962050E+03
    3  8.98000E-01    4  1.02000E-01
A112           -2   60   38    1  0.000000E+00 -2.920000E-01  4.750000E-01  4.960180E+03
    2  7.64000E-01    3  2.36000E-01
A113           -2   60   41    1  0.000000E+00 -2.930000E-01 -1.000000E-01  4.960000E+03
    4  2.80000E-01    5  7.20000E-01
A114           -2   60   45    1  0.000000E+00 -3.290000E-01  2.700000E-01  4.963050E+03
    2  7.53000E-01    3  2.47000E-01
A115           -2   60   48    1  0.000000E+00 -3.330000E-01 -3.060000E-01  4.965130E+03
    4  5.55000E-01    5  4.45000E-01
A117           -2   60   42    1  0.000000E+00 -1.090000E-01  1.380000E-01  4.962000E+03
    4  2.87000E-01    5  7.13000E-01
A118           -2   60   49    1  0.000000E+00 -5.600000E-02 -2.700000E-01  4.966300E+03
    3  1.40000E-01    4  8.60000E-01
A119           -2   60   37    1  0.000000E+00  1.110000E-01 -1.410000E-01  4.963000E+03
    1  8.46000E-01    2  1.54000E-01
A121           -2   60   50    1  0.000000E+00  6.600000E-02 -3.850000E-01  4.960000E+03
    4  6.80000E-01    5  3.20000E-01
A122           -2   60   52    1  0.000000E+00  6.100000E-02 -2.380000E-01  4.967000E+03
    4  8.42000E-01    5  1.58000E-01
A123           -2   60   51    1  0.000000E+00  1.250000E-01 -2.740000E-01  4.963000E+03
    4  3.22000E-01    5  6.78000E-01
A124           -2   60   46    1  0.000000E+00  2.560000E-01  4.830000E-01  4.961000E+03
    4  3.64000E-01    5  6.36000E-01
A125           -2   60   47    1  0.000000E+00  3.790000E-01 -3.700000E-02  4.962000E+03
    4  4.33000E-01    5  5.67000E-01
A126           -2   60   48    1  0.000000E+00  3.770000E-01 -2.700000E-02  4.959000E+03
    4  6.54000E-01    5  3.46000E-01
A128           -2   60   42    1  0.000000E+00  4.780000E-01 -4.680000E-01  4.952350E+03
    4  3.45000E-01    5  6.55000E-01
A129           -2   61   51    1  0.000000E+00 -2.880000E-01 -2.730000E-01  4.965850E+03
    4  6.88000E-01    5  3.12000E-01
A130           -2   61   49    1  0.000000E+00 -1.620000E-01  2.370000E-01  4.965000E+03
    4  5.93000E-01    5  4.07000E-01
A131           -2   61   40    1  0.000000E+00 -8.800000E-02  4.970000E-01  4.955000E+03
    4  3.56000E-01    5  6.44000E-01
A132           -2   61   46    1  0.000000E+00 -6.400000E-02  3.570000E-01  4.960200E+03
    4  4.24000E-01    5  5.76000E-01
A133           -2   61   52    1  0.000000E+00 -7.400000E-02 -6.000000E-02  4.975000E+03
    4  4.93000E-01    5  5.07000E-01
A134           -2   61   48    1  0.000000E+00  5.600000E-02  2.520000E-01  4.963050E+03
    1  1.70000E-01    2  8.30000E-01
A135           -2   61   48    1  0.000000E+00  4.580000E-01  2.280000E-01  4.955000E+03
    4  7.49000E-01    5  2.51000E-01
A136           -2   62   45    1  0.000000E+00 -4.760000E-01  4.740000E-01  4.969000E+03
    1  5.46000E-01    2  4.54000E-01
A137           -2   62   50    1  0.000000E+00 -4.520000E-01 -4.580000E-01  4.961620E+03
    4  6.35000E-01    5  3.65000E-01
A138           -2   62   47    1  0.000000E+00 -7.700000E-02  2.180000E-01  4.957900E+03
    3  8.17000E-01    4  1.83000E-01
A139           -2   62   39    1  0.000000E+00  1.480000E-01  1.840000E-01  4.948230E+03
    4  3.80000E-01    5  6.20000E-01
A140           -2   63   39    1  0.000000E+00 -4.810000E-01 -1.190000E-01  4.958000E+03
    5  7.86000E-01    6  2.14000E-01
A141           -2   63   40    1  0.000000E+00 -4.510000E-01 -1.080000E-01  4.950000E+03
    4  1.39000E-01    5  8.61000E-01
A144           -2   63   41    1  0.000000E+00  1.200000E-02 -4.760000E-01  4.939000E+03
    4  1.33000E-01    5  8.67000E-01
A147           -2   63   39    1  0.000000E+00  3.220000E-01 -2.450000E-01  4.935000E+03
    4  1.77000E-01    5  8.23000E-01
A148           -2   63   39    1  0.000000E+00  3.530000E-01  3.620000E-01  4.952000E+03
    4  1.96000E-01    5  8.04000E-01
A150           -2   64   41    1  0.000000E+00 -2.470000E-01  2.320000E-01  4.946000E+03
    4  7.75000E-01    5  2.25000E-01
A151           -2   64   38    1  0.000000E+00  9.500000E-02 -3.060000E-01  4.949670E+03
    1  8.65000E-01    2  1.35000E-01
A152           -2   64   39    1  0.000000E+00  9.400000E-02 -3.710000E-01  4.948000E+03
    4  6.14000E-01    5  3.86000E-01
A156           -2   65   38    1  0.000000E+00  3.300000E-01  7.400000E-02  4.928450E+03
    1  2.36000E-01    2  7.64000E-01
A158           -2   66   42    1  0.000000E+00 -4.570000E-01  1.700000E-02  4.931000E+03
    4  4.54000E-01    5  5.46000E-01
A159           -2   66   45    1  0.000000E+00 -4.600000E-01  7.500000E-02  4.951600E+03
    2  4.51000E-01    3  5.49000E-01
A160           -2   66   39    1  0.000000E+00 -3.610000E-01 -3.700000E-01  4.939720E+03
    4  3.61000E-01    5  6.39000E-01
A161           -2   66   43    1  0.000000E+00 -3.650000E-01 -7.300000E-02  4.931200E+03
    1  7.07000E-01    2  2.93000E-01
A162           -2   66   53    1  0.000000E+00 -4.440000E-01  1.880000E-01  4.960000E+03
    4  8.13000E-01    5  1.87000E-01
A163           -2   66   40    1  0.000000E+00 -2.080000E-01 -5.000000E-03  4.942330E+03
    2  4.68000E-01    3  5.32000E-01
A164           -2   66   51    1  0.000000E+00 -2.540000E-01  3.690000E-01  4.956930E+03
    4  2.33000E-01    5  7.67000E-01
A165           -2   66   52    1  0.000000E+00 -2.570000E-01  4.300000E-01  4.962030E+03
    4  3.38000E-01    5  6.62000E-01
A166           -2   66   44    1  0.000000E+00 -8.900000E-02  4.690000E-01  4.952000E+03
    2  2.43000E-01    3  7.57000E-01
A167           -2   66   26    1  0.000000E+00  4.100000E-01  2.450000E-01  4.915000E+03
    3  5.61000E-01    4  4.39000E-01
A170           -2   66   52    1  0.000000E+00  3.320000E-01 -2.000000E-01  4.947850E+03
    4  2.62000E-01    5  7.38000E-01
A172           -2   67   39    1  0.000000E+00  3.680000E-01  2.890000E-01  4.918000E+03
    1  1.39000E-01    2  8.61000E-01
A173           -2   67   43    1  0.000000E+00  4.880000E-01  1.310000E-01  4.931440E+03
    1  1.61000E-01    2  8.39000E-01
A174           -2   68   46    1  0.000000E+00 -2.200000E-02  2.410000E-01  4.949000E+03
    4  7.88000E-01    5  2.12000E-01
A175           -2   68   42    1  0.000000E+00  1.380000E-01 -1.320000E-01  4.936500E+03
    1  3.86000E-01    2  6.14000E-01
A176           -2   68   37    1  0.000000E+00  2.030000E-01 -2.390000E-01  4.935370E+03
    1  5.67000E-01    2  4.33000E-01
A179           -2   69   28    1  0.000000E+00 -3.340000E-01 -2.900000E-01  4.899000E+03
    2  5.50000E-01    3  4.50000E-01
A180           -2   69   29    1  0.000000E+00 -3.030000E-01 -2.530000E-01  4.891000E+03
    4  7.62000E-01    5  2.38000E-01
A182           -2   69   39    1  0.000000E+00 -1.800000E-01  2.390000E-01  4.930000E+03
    1  5.98000E-01    2  4.02000E-01
A183           -2   69   46    1  0.000000E+00 -6.400000E-02  3.940000E-01  4.962200E+03
    4  7.44000E-01    5  2.56000E-01
A184           -2   69   41    1  0.000000E+00  3.740000E-01  6.000000E-02  4.928500E+03
    1  2.86000E-01    2  7.14000E-01
A185           -2   69   56    1  0.000000E+00  2.570000E-01 -4.010000E-01  4.983830E+03
    4  5.27000E-01    5  4.73000E-01
A186           -2   69   48    1  0.000000E+00  3.960000E-01  3.170000E-01  4.942000E+03
    4  3.99000E-01    5  6.01000E-01
A188           -2   70   51    1  0.000000E+00 -2.680000E-01 -4.830000E-01  4.956400E+03
    4  5.13000E-01    5  4.87000E-01
A189           -2   70   43    1  0.000000E+00 -1.960000E-01  3.110000E-01  4.931280E+03
    2  6.50000E-01    3  3.50000E-01
A192           -2   71   48    1  0.000000E+00 -3.380000E-01  3.190000E-01  4.953000E+03
    4  7.36000E-01    5  2.64000E-01
A194           -2   71   50    1  0.000000E+00  4.310000E-01  4.450000E-01  4.954600E+03
    4  8.56000E-01    5  1.44000E-01
A195           -2   72   42    1  0.000000E+00 -4.640000E-01 -5.300000E-02  4.927120E+03
    2  8.88000E-01    3  1.12000E-01
A197           -2   72   38    1  0.000000E+00  2.180000E-01  5.300000E-02  4.928000E+03
    1  4.31000E-01    2  5.69000E-01
A198           -2   72   43    1  0.000000E+00  2.140000E-01 -9.100000E-02  4.910340E+03
    4  6.18000E-01    5  3.82000E-01
A199           -2   72   35    1  0.000000E+00  3.740000E-01  4.480000E-01  4.923390E+03
    2  6.41000E-01    3  3.59000E-01
A202           -2   73   27    1  0.000000E+00  1.440000E-01 -5.100000E-02  4.907000E+03
    4  3.65000E-01    5  6.35000E-01
A204           -2   74   18    1  0.000000E+00  3.690000E-01 -1.600000E-01  5.125900E+03
    1  1.44000E-01    2  8.56000E-01
A205           -2   74   37    1  0.000000E+00  3.190000E-01  2.700000E-01  4.920000E+03
    1  4.76000E-01    2  5.24000E-01
A209           -2   76   37    1  0.000000E+00  2.340000E-01  1.690000E-01  4.906130E+03
    1  8.03000E-01    2  1.97000E-01
A210           -2   76   41    1  0.000000E+00  2.630000E-01 -3.390000E-01  4.916930E+03
    2  6.73000E-01    3  3.27000E-01
A211           -2   77   36    1  0.000000E+00 -3.330000E-01  4.360000E-01  4.877300E+03
    2  2.99000E-01    3  7.01000E-01
A212           -2   77   37    1  0.000000E+00 -1.170000E-01 -1.340000E-01  4.898890E+03
    2  2.72000E-01    3  7.28000E-01
A213           -2   77   39    1  0.000000E+00  5.000000E-03  2.700000E-01  4.908000E+03
    2  7.11000E-01    3  2.89000E-01
A215           -2   78   39    1  0.000000E+00  2.410000E-01 -4.630000E-01  4.896900E+03
    2  6.43000E-01    3  3.57000E-01
A216           -2   79   49    1  0.000000E+00 -3.080000E-01  4.100000E-02  4.943540E+03
    1  3.50000E-01    2  6.50000E-01
A217           -2   79   37    1  0.000000E+00  3.230000E-01 -1.330000E-01  4.908600E+03
    1  1.93000E-01    2  8.07000E-01
A219           -2   80   37    1  0.000000E+00  2.490000E-01 -1.330000E-01  4.889370E+03
    2  8.08000E-01    3  1.92000E-01
A220           -2   81   39    1  0.000000E+00  8.200000E-02 -3.600000E-01  4.892150E+03
    2  7.62000E-01    3  2.38000E-01
A221           -2   81   36    1  0.000000E+00  3.920000E-01  4.880000E-01  4.889800E+03
    2  7.89000E-01    3  2.11000E-01
A223           -2   84   47    1  0.000000E+00 -5.400000E-02  3.280000E-01  4.936020E+03
    2  2.95000E-01    3  7.05000E-01
A225           -2   85   10    1  0.000000E+00  1.620000E-01 -3.840000E-01  5.016000E+03
    2  6.47000E-01    3  3.53000E-01
A226           -2   85   39    1  0.000000E+00  1.900000E-01 -2.800000E-02  4.884630E+03
    1  8.38000E-01    2  1.62000E-01
A227           -2   86    9    1  0.000000E+00 -4.370000E-01  4.880000E-01  5.015590E+03
    2  3.20000E-01    3  6.80000E-01
A232           -2   87   33    1  0.000000E+00 -7.800000E-02 -2.340000E-01  4.870790E+03
    1  8.52000E-01    2  1.48000E-01
A233           -2   88   36    1  0.000000E+00 -9.000000E-02  2.370000E-01  4.864470E+03
    2  4.27000E-01    3  5.73000E-01
A238           -2   90   37    1  0.000000E+00 -2.680000E-01 -2.000000E-03  4.866060E+03