pcf
* control data
             restart          estimation
       500       470         1         0         2         0
         9         1              single               point         1         0         0          noobsreref
   2.000000E+01  -3.000000E+00   3.000000E-01   1.000000E-02        -7       999          lamforgive        noderforgive
   1.000000E+01   1.000000E+01   1.000000E-03         0         0
   1.000000E-01         1   1.100000E+00               noaui          nosenreuse        noboundscale
         1   1.000000E-02         3         3   1.000000E-02         3   0.000000E+00         1  -1.000000E+00
         0         0         0         0             jcosave          verboserec          jcosaveitn          reisaveitn          parsaveitn        noparsaverun
* singular value decomposition
         1
  10000000    1.000000E-06
1
* parameter groups
hk                      relative              1.0000000000E-02       0.0  switch                2.0000000000E+00       parabolic             1.0000000000E-05      5.0000000000E-01       smaller
* parameter data
hk000                  log                    factor                5.0000000000E+00      5.0000000000E-01      5.0000000000E+01       hk                    1.0000000000E+00      0.0000000000E+00      1          
hk001                  log                    factor                5.0000000000E+00      5.0000000000E-01      5.0000000000E+01       hk                    1.0000000000E+00      0.0000000000E+00      1          
hk002                  log                    factor                5.0000000000E+00      5.0000000000E-01      5.0000000000E+01       hk                    1.0000000000E+00      0.0000000000E+00      1          
hk003                  log                    factor                5.0000000000E+00      5.0000000000E-01      5.0000000000E+01       hk                    1.0000000000E+00      0.0000000000E+00      1          
hk004                  log                    factor                5.0000000000E+00      5.0000000000E-01      5.0000000000E+01       hk                    1.0000000000E+00      0.0000000000E+00      1          
hk005                  log                    factor                5.0000000000E+00      5.0000000000E-01      5.0000000000E+01       hk                    1.0000000000E+00      0.0000000000E+00      1          
hk006                  log                    factor                5.0000000000E+00      5.0000000000E-01      5.0000000000E+01       hk                    1.0000000000E+00      0.0000000000E+00      1          
hk007                  log                    factor                5.0000000000E+00      5.0000000000E-01      5.0000000000E+01       hk                    1.0000000000E+00      0.0000000000E+00      1          
hk008                  log                    factor                5.0000000000E+00      5.0000000000E-01      5.0000000000E+01       hk                    1.0000000000E+00      0.0000000000E+00      1          
hk009                  log                    factor                5.0000000000E+00      5.0000000000E-01      5.0000000000E+01       hk                    1.0000000000E+00      0.0000000000E+00      1          
hk010                  log                    factor                5.0000000000E+00      5.0000000000E-01      5.0000000000E+01       hk                    1.0000000000E+00      0.0000000000E+00      1          
hk011                  log                    factor                5.0000000000E+00      5.0000000000E-01      5.0000000000E+01       hk                    1.0000000000E+00      0.0000000000E+00      1          
hk012                  log                    factor                5.0000000000E+00      5.0000000000E-01      5.0000000000E+01       hk                    1.0000000000E+00      0.0000000000E+00      1          
hk013                  log                    factor                5.0000000000E+00      5.0000000000E-01      5.0000000000E+01       hk                    1.0000000000E+00      0.0000000000E+00      1          
hk014                  log                    factor                5.0000000000E+00      5.0000000000E-01      5.0000000000E+01       hk                    1.0000000000E+00      0.0000000000E+00      1          
hk015                  log                    factor                5.0000000000E+00      5.0000000000E-01      5.0000000000E+01       hk                    1.0000000000E+00      0.0000000000E+00      1          
hk016                  log                    factor                5.0000000000E+00      5.0000000000E-01      5.0000000000E+01       hk                    1.0000000000E+00      0.0000000000E+00      1          
hk017                  log                    factor                5.0000000000E+00      5.0000000000E-01      5.0000000000E+01       hk                    1.0000000000E+00      0.0000000000E+00      1          
hk018                  log                    factor                5.0000000000E+00      5.0000000000E-01      5.0000000000E+01       hk                    1.0000000000E+00      0.0000000000E+00      1          
hk019                  log                    factor                5.0000000000E+00      5.0000000000E-01      5.0000000000E+01       hk                    1.0000000000E+00      0.0000000000E+00      1          
hk020                  log                    factor                5.0000000000E+00      5.0000000000E-01      5.0000000000E+01       hk                    1.0000000000E+00      0.0000000000E+00      1          
hk021                  log                    factor                5.0000000000E+00      5.0000000000E-01      5.0000000000E+01       hk                    1.0000000000E+00      0.0000000000E+00      1          
hk022                  log                    factor                5.0000000000E+00      5.0000000000E-01      5.0000000000E+01       hk                    1.0000000000E+00      0.0000000000E+00      1          
hk023                  log                    factor                5.0000000000E+00      5.0000000000E-01      5.0000000000E+01       hk                    1.0000000000E+00      0.0000000000E+00      1          
hk024                  log                    factor                5.0000000000E+00      5.0000000000E-01      5.0000000000E+01       hk                    1.0000000000E+00      0.0000000000E+00      1          
hk025                  log                    factor                5.0000000000E+00      5.0000000000E-01      5.0000000000E+01       hk                    1.0000000000E+00      0.0000000000E+00      1          
hk026                  log                    factor                5.0000000000E+00      5.0000000000E-01      5.0000000000E+01       hk                    1.0000000000E+00      0.0000000000E+00      1          
hk027                  log                    factor                5.0000000000E+00      5.0000000000E-01      5.0000000000E+01       hk                    1.0000000000E+00      0.0000000000E+00      1          
hk028                  log                    factor                5.0000000000E+00      5.0000000000E-01      5.0000000000E+01       hk                    1.0000000000E+00      0.0000000000E+00      1          
hk029                  log                    factor                5.0000000000E+00      5.0000000000E-01      5.0000000000E+01       hk                    1.0000000000E+00      0.0000000000E+00      1          
hk030                  log                    factor                5.0000000000E+00      5.0000000000E-01      5.0000000000E+01       hk                    1.0000000000E+00      0.0000000000E+00      1          
hk031                  log                    factor                5.0000000000E+00      5.0000000000E-01      5.0000000000E+01       hk                    1.0000000000E+00      0.0000000000E+00      1          
hk032                  log                    factor                5.0000000000E+00      5.0000000000E-01      5.0000000000E+01       hk                    1.0000000000E+00      0.0000000000E+00      1          
hk033                  log                    factor                5.0000000000E+00      5.0000000000E-01      5.0000000000E+01       hk                    1.0000000000E+00      0.0000000000E+00      1          
hk034                  log                    factor                5.0000000000E+00      5.0000000000E-01      5.0000000000E+01       hk                    1.0000000000E+00      0.0000000000E+00      1          
hk035                  log                    factor                5.0000000000E+00      5.0000000000E-01      5.0000000000E+01       hk                    1.0000000000E+00      0.0000000000E+00      1          
hk036                  log                    factor                5.0000000000E+00      5.0000000000E-01      5.0000000000E+01       hk                    1.0000000000E+00      0.0000000000E+00      1          
hk037                  log                    factor                5.0000000000E+00      5.0000000000E-01      5.0000000000E+01       hk                    1.0000000000E+00      0.0000000000E+00      1          
hk038                  log                    factor                5.0000000000E+00      5.0000000000E-01      5.0000000000E+01       hk                    1.0000000000E+00      0.0000000000E+00      1          
hk039                  log                    factor                5.0000000000E+00      5.0000000000E-01      5.0000000000E+01       hk                    1.0000000000E+00      0.0000000000E+00      1          
hk040                  log                    factor                5.0000000000E+00      5.0000000000E-01      5.0000000000E+01       hk                    1.0000000000E+00      0.0000000000E+00      1          
hk041                  log                    factor                5.0000000000E+00      5.0000000000E-01      5.0000000000E+01       hk                    1.0000000000E+00      0.0000000000E+00      1          
hk042                  log                    factor                5.0000000000E+00      5.0000000000E-01      5.0000000000E+01       hk                    1.0000000000E+00      0.0000000000E+00      1          
hk043                  log                    factor                5.0000000000E+00      5.0000000000E-01      5.0000000000E+01       hk                    1.0000000000E+00      0.0000000000E+00      1          
hk044                  log                    factor                5.0000000000E+00      5.0000000000E-01      5.0000000000E+01       hk                    1.0000000000E+00      0.0000000000E+00      1          
hk045                  log                    factor                5.0000000000E+00      5.0000000000E-01      5.0000000000E+01       hk                    1.0000000000E+00      0.0000000000E+00      1          
hk046                  log                    factor                5.0000000000E+00      5.0000000000E-01      5.0000000000E+01       hk                    1.0000000000E+00      0.0000000000E+00      1          
hk047                  log                    factor                5.0000000000E+00      5.0000000000E-01      5.0000000000E+01       hk                    1.0000000000E+00      0.0000000000E+00      1          
hk048                  log                    factor                5.0000000000E+00      5.0000000000E-01      5.0000000000E+01       hk                    1.0000000000E+00      0.0000000000E+00      1          
hk049                  log                    factor                5.0000000000E+00      5.0000000000E-01      5.0000000000E+01       hk                    1.0000000000E+00      0.0000000000E+00      1          
hk050                  log                    factor                5.0000000000E+00      5.0000000000E-01      5.0000000000E+01       hk                    1.0000000000E+00      0.0000000000E+00      1          
hk051                  log                    factor                5.0000000000E+00      5.0000000000E-01      5.0000000000E+01       hk                    1.0000000000E+00      0.0000000000E+00      1          
hk052                  log                    factor                5.0000000000E+00      5.0000000000E-01      5.0000000000E+01       hk                    1.0000000000E+00      0.0000000000E+00      1          
hk053                  log                    factor                5.0000000000E+00      5.0000000000E-01      5.0000000000E+01       hk                    1.0000000000E+00      0.0000000000E+00      1          
hk054                  log                    factor                5.0000000000E+00      5.0000000000E-01      5.0000000000E+01       hk                    1.0000000000E+00      0.0000000000E+00      1          
hk055                  log                    factor                5.0000000000E+00      5.0000000000E-01      5.0000000000E+01       hk                    1.0000000000E+00      0.0000000000E+00      1          
hk056                  log                    factor                5.0000000000E+00      5.0000000000E-01      5.0000000000E+01       hk                    1.0000000000E+00      0.0000000000E+00      1          
hk057                  log                    factor                5.0000000000E+00      5.0000000000E-01      5.0000000000E+01       hk                    1.0000000000E+00      0.0000000000E+00      1          
hk058                  log                    factor                5.0000000000E+00      5.0000000000E-01      5.0000000000E+01       hk                    1.0000000000E+00      0.0000000000E+00      1          
hk059                  log                    factor                5.0000000000E+00      5.0000000000E-01      5.0000000000E+01       hk                    1.0000000000E+00      0.0000000000E+00      1          
hk100                  log                    factor                5.0000000000E+00      5.0000000000E-01      5.0000000000E+01       hk                    1.0000000000E+00      0.0000000000E+00      1          
hk101                  log                    factor                5.0000000000E+00      5.0000000000E-01      5.0000000000E+01       hk                    1.0000000000E+00      0.0000000000E+00      1          
hk102                  log                    factor                5.0000000000E+00      5.0000000000E-01      5.0000000000E+01       hk                    1.0000000000E+00      0.0000000000E+00      1          
hk103                  log                    factor                5.0000000000E+00      5.0000000000E-01      5.0000000000E+01       hk                    1.0000000000E+00      0.0000000000E+00      1          
hk104                  log                    factor                5.0000000000E+00      5.0000000000E-01      5.0000000000E+01       hk                    1.0000000000E+00      0.0000000000E+00      1          
hk105                  log                    factor                5.0000000000E+00      5.0000000000E-01      5.0000000000E+01       hk                    1.0000000000E+00      0.0000000000E+00      1          
hk106                  log                    factor                5.0000000000E+00      5.0000000000E-01      5.0000000000E+01       hk                    1.0000000000E+00      0.0000000000E+00      1          
hk107                  log                    factor                5.0000000000E+00      5.0000000000E-01      5.0000000000E+01       hk                    1.0000000000E+00      0.0000000000E+00      1          
hk108                  log                    factor                5.0000000000E+00      5.0000000000E-01      5.0000000000E+01       hk                    1.0000000000E+00      0.0000000000E+00      1          
hk109                  log                    factor                5.0000000000E+00      5.0000000000E-01      5.0000000000E+01       hk                    1.0000000000E+00      0.0000000000E+00      1          
hk110                  log                    factor                5.0000000000E+00      5.0000000000E-01      5.0000000000E+01       hk                    1.0000000000E+00      0.0000000000E+00      1          
hk111                  log                    factor                5.0000000000E+00      5.0000000000E-01      5.0000000000E+01       hk                    1.0000000000E+00      0.0000000000E+00      1          
hk112                  log                    factor                5.0000000000E+00      5.0000000000E-01      5.0000000000E+01       hk                    1.0000000000E+00      0.0000000000E+00      1          
hk113                  log                    factor                5.0000000000E+00      5.0000000000E-01      5.0000000000E+01       hk                    1.0000000000E+00      0.0000000000E+00      1          
hk114                  log                    factor                5.0000000000E+00      5.0000000000E-01      5.0000000000E+01       hk                    1.0000000000E+00      0.0000000000E+00      1          
hk115                  log                    factor                5.0000000000E+00      5.0000000000E-01      5.0000000000E+01       hk                    1.0000000000E+00      0.0000000000E+00      1          
hk116                  log                    factor                5.0000000000E+00      5.0000000000E-01      5.0000000000E+01       hk                    1.0000000000E+00      0.0000000000E+00      1          
hk117                  log                    factor                5.0000000000E+00      5.0000000000E-01      5.0000000000E+01       hk                    1.0000000000E+00      0.0000000000E+00      1          
hk118                  log                    factor                5.0000000000E+00      5.0000000000E-01      5.0000000000E+01       hk                    1.0000000000E+00      0.0000000000E+00      1          
hk119                  log                    factor                5.0000000000E+00      5.0000000000E-01      5.0000000000E+01       hk                    1.0000000000E+00      0.0000000000E+00      1          
hk120                  log                    factor                5.0000000000E+00      5.0000000000E-01      5.0000000000E+01       hk                    1.0000000000E+00      0.0000000000E+00      1          
hk121                  log                    factor                5.0000000000E+00      5.0000000000E-01      5.0000000000E+01       hk                    1.0000000000E+00      0.0000000000E+00      1          
hk122                  log                    factor                5.0000000000E+00      5.0000000000E-01      5.0000000000E+01       hk                    1.0000000000E+00      0.0000000000E+00      1          
hk123                  log                    factor                5.0000000000E+00      5.0000000000E-01      5.0000000000E+01       hk                    1.0000000000E+00      0.0000000000E+00      1          
hk124                  log                    factor                5.0000000000E+00      5.0000000000E-01      5.0000000000E+01       hk                    1.0000000000E+00      0.0000000000E+00      1          
hk125                  log                    factor                5.0000000000E+00      5.0000000000E-01      5.0000000000E+01       hk                    1.0000000000E+00      0.0000000000E+00      1          
hk126                  log                    factor                5.0000000000E+00      5.0000000000E-01      5.0000000000E+01       hk                    1.0000000000E+00      0.0000000000E+00      1          
hk127                  log                    factor                5.0000000000E+00      5.0000000000E-01      5.0000000000E+01       hk                    1.0000000000E+00      0.0000000000E+00      1          
hk128                  log                    factor                5.0000000000E+00      5.0000000000E-01      5.0000000000E+01       hk                    1.0000000000E+00      0.0000000000E+00      1          
hk129                  log                    factor                5.0000000000E+00      5.0000000000E-01      5.0000000000E+01       hk                    1.0000000000E+00      0.0000000000E+00      1          
hk130                  log                    factor                5.0000000000E+00      5.0000000000E-01      5.0000000000E+01       hk                    1.0000000000E+00      0.0000000000E+00      1          
hk131                  log                    factor                5.0000000000E+00      5.0000000000E-01      5.0000000000E+01       hk                    1.0000000000E+00      0.0000000000E+00      1          
hk132                  log                    factor                5.0000000000E+00      5.0000000000E-01      5.0000000000E+01       hk                    1.0000000000E+00      0.0000000000E+00      1          
hk133                  log                    factor                5.0000000000E+00      5.0000000000E-01      5.0000000000E+01       hk                    1.0000000000E+00      0.0000000000E+00      1          
hk134                  log                    factor                5.0000000000E+00      5.0000000000E-01      5.0000000000E+01       hk                    1.0000000000E+00      0.0000000000E+00      1          
hk135                  log                    factor                5.0000000000E+00      5.0000000000E-01      5.0000000000E+01       hk                    1.0000000000E+00      0.0000000000E+00      1          
hk136                  log                    factor                5.0000000000E+00      5.0000000000E-01      5.0000000000E+01       hk                    1.0000000000E+00      0.0000000000E+00      1          
hk137                  log                    factor                5.0000000000E+00      5.0000000000E-01      5.0000000000E+01       hk                    1.0000000000E+00      0.0000000000E+00      1          
hk138                  log                    factor                5.0000000000E+00      5.0000000000E-01      5.0000000000E+01       hk                    1.0000000000E+00      0.0000000000E+00      1          
hk139                  log                    factor                5.0000000000E+00      5.0000000000E-01      5.0000000000E+01       hk                    1.0000000000E+00      0.0000000000E+00      1          
hk140                  log                    factor                5.0000000000E+00      5.0000000000E-01      5.0000000000E+01       hk                    1.0000000000E+00      0.0000000000E+00      1          
hk141                  log                    factor                5.0000000000E+00      5.0000000000E-01      5.0000000000E+01       hk                    1.0000000000E+00      0.0000000000E+00      1          
hk142                  log                    factor                5.0000000000E+00      5.0000000000E-01      5.0000000000E+01       hk                    1.0000000000E+00      0.0000000000E+00      1          
hk143                  log                    factor                5.0000000000E+00      5.0000000000E-01      5.0000000000E+01       hk                    1.0000000000E+00      0.0000000000E+00      1          
hk144                  log                    factor                5.0000000000E+00      5.0000000000E-01      5.0000000000E+01       hk                    1.0000000000E+00      0.0000000000E+00      1          
hk145                  log                    factor                5.0000000000E+00      5.0000000000E-01      5.0000000000E+01       hk                    1.0000000000E+00      0.0000000000E+00      1          
hk146                  log                    factor                5.0000000000E+00      5.0000000000E-01      5.0000000000E+01       hk                    1.0000000000E+00      0.0000000000E+00      1          
hk147                  log                    factor                5.0000000000E+00      5.0000000000E-01      5.0000000000E+01       hk                    1.0000000000E+00      0.0000000000E+00      1          
hk148                  log                    factor                5.0000000000E+00      5.0000000000E-01      5.0000000000E+01       hk                    1.0000000000E+00      0.0000000000E+00      1          
hk149                  log                    factor                5.0000000000E+00      5.0000000000E-01      5.0000000000E+01       hk                    1.0000000000E+00      0.0000000000E+00      1          
hk150                  log                    factor                5.0000000000E+00      5.0000000000E-01      5.0000000000E+01       hk                    1.0000000000E+00      0.0000000000E+00      1          
hk151                  log                    factor                5.0000000000E+00      5.0000000000E-01      5.0000000000E+01       hk                    1.0000000000E+00      0.0000000000E+00      1          
hk152                  log                    factor                5.0000000000E+00      5.0000000000E-01      5.0000000000E+01       hk                    1.0000000000E+00      0.0000000000E+00      1          
hk153                  log                    factor                5.0000000000E+00      5.0000000000E-01      5.0000000000E+01       hk                    1.0000000000E+00      0.0000000000E+00      1          
hk154                  log                    factor                5.0000000000E+00      5.0000000000E-01      5.0000000000E+01       hk                    1.0000000000E+00      0.0000000000E+00      1          
hk155                  log                    factor                5.0000000000E+00      5.0000000000E-01      5.0000000000E+01       hk                    1.0000000000E+00      0.0000000000E+00      1          
hk156                  log                    factor                5.0000000000E+00      5.0000000000E-01      5.0000000000E+01       hk                    1.0000000000E+00      0.0000000000E+00      1          
hk157                  log                    factor                5.0000000000E+00      5.0000000000E-01      5.0000000000E+01       hk                    1.0000000000E+00      0.0000000000E+00      1          
hk158                  log                    factor                5.0000000000E+00      5.0000000000E-01      5.0000000000E+01       hk                    1.0000000000E+00      0.0000000000E+00      1          
hk159                  log                    factor                5.0000000000E+00      5.0000000000E-01      5.0000000000E+01       hk                    1.0000000000E+00      0.0000000000E+00      1          
hk200                  log                    factor                5.0000000000E+00      5.0000000000E-01      5.0000000000E+01       hk                    1.0000000000E+00      0.0000000000E+00      1          
hk201                  log                    factor                5.0000000000E+00      5.0000000000E-01      5.0000000000E+01       hk                    1.0000000000E+00      0.0000000000E+00      1          
hk202                  log                    factor                5.0000000000E+00      5.0000000000E-01      5.0000000000E+01       hk                    1.0000000000E+00      0.0000000000E+00      1          
hk203                  log                    factor                5.0000000000E+00      5.0000000000E-01      5.0000000000E+01       hk                    1.0000000000E+00      0.0000000000E+00      1          
hk204                  log                    factor                5.0000000000E+00      5.0000000000E-01      5.0000000000E+01       hk                    1.0000000000E+00      0.0000000000E+00      1          
hk205                  log                    factor                5.0000000000E+00      5.0000000000E-01      5.0000000000E+01       hk                    1.0000000000E+00      0.0000000000E+00      1          
hk206                  log                    factor                5.0000000000E+00      5.0000000000E-01      5.0000000000E+01       hk                    1.0000000000E+00      0.0000000000E+00      1          
hk207                  log                    factor                5.0000000000E+00      5.0000000000E-01      5.0000000000E+01       hk                    1.0000000000E+00      0.0000000000E+00      1          
hk208                  log                    factor                5.0000000000E+00      5.0000000000E-01      5.0000000000E+01       hk                    1.0000000000E+00      0.0000000000E+00      1          
hk209                  log                    factor                5.0000000000E+00      5.0000000000E-01      5.0000000000E+01       hk                    1.0000000000E+00      0.0000000000E+00      1          
hk210                  log                    factor                5.0000000000E+00      5.0000000000E-01      5.0000000000E+01       hk                    1.0000000000E+00      0.0000000000E+00      1          
hk211                  log                    factor                5.0000000000E+00      5.0000000000E-01      5.0000000000E+01       hk                    1.0000000000E+00      0.0000000000E+00      1          
hk212                  log                    factor                5.0000000000E+00      5.0000000000E-01      5.0000000000E+01       hk                    1.0000000000E+00      0.0000000000E+00      1          
hk213                  log                    factor                5.0000000000E+00      5.0000000000E-01      5.0000000000E+01       hk                    1.0000000000E+00      0.0000000000E+00      1          
hk214                  log                    factor                5.0000000000E+00      5.0000000000E-01      5.0000000000E+01       hk                    1.0000000000E+00      0.0000000000E+00      1          