pcf
* control data
             restart          estimation
        23      1328         6         0         1         0
         1         1              single               point         1         0         0          noobsreref
   2.000000E+01  -3.000000E+00   3.000000E-01   1.000000E-02        -7       999          lamforgive        noderforgive
   1.000000E+01   1.000000E+01   1.000000E-03         0         0
   1.000000E-01         1   1.100000E+00               noaui          nosenreuse        noboundscale
         1   1.000000E-02         3         3   1.000000E-02         3   0.000000E+00         1  -1.000000E+00
         0         0         0         0             jcosave          verboserec          jcosaveitn          reisaveitn          parsaveitn        noparsaverun
* singular value decomposition
         1
  10000000    1.000000E-06
1
* parameter groups
hk                      relative              5.0000000000E-02       0.0  always_2              2.0000000000E+00       parabolic             1.0000000000E-05      5.0000000000E-01       smaller              
ha                      relative              5.0000000000E-02       0.0  always_2              2.0000000000E+00       parabolic             1.0000000000E-05      5.0000000000E-01       smaller              
hk1                     relative              5.0000000000E-02       0.0  always_2              2.0000000000E+00       parabolic             1.0000000000E-05      5.0000000000E-01       smaller              
vk                      relative              5.0000000000E-02       0.0  always_2              2.0000000000E+00       parabolic             1.0000000000E-05      5.0000000000E-01       smaller              
ss                      relative              5.0000000000E-02       0.0  always_2              2.0000000000E+00       parabolic             1.0000000000E-05      5.0000000000E-01       smaller              
sy                      relative              5.0000000000E-02       0.0  always_2              2.0000000000E+00       parabolic             1.0000000000E-05      5.0000000000E-01       smaller
* parameter data
haniyes                log                    factor                1.0000000000E+00      1.1000000000E-10      1.1000000000E+10       ha                    1.0000000000E+00      0.0000000000E+00      1          
hanino                 log                    factor                1.0000000000E+00      1.1000000000E-10      1.1000000000E+10       ha                    1.0000000000E+00      0.0000000000E+00      1          
hanitrf                log                    factor                1.0000000000E+00      1.1000000000E-10      1.1000000000E+10       ha                    1.0000000000E+00      0.0000000000E+00      1          
vani1                  log                    factor                1.0000000000E+00      1.1000000000E-10      1.1000000000E+10       vk                    1.0000000000E+00      0.0000000000E+00      1          
vani2                  log                    factor                1.0000000000E+00      1.1000000000E-10      1.1000000000E+10       vk                    1.0000000000E+00      0.0000000000E+00      1          
vani3                  log                    factor                1.0000000000E+00      1.1000000000E-10      1.1000000000E+10       vk                    1.0000000000E+00      0.0000000000E+00      1          
vani4                  log                    factor                1.0000000000E+00      1.1000000000E-10      1.1000000000E+10       vk                    1.0000000000E+00      0.0000000000E+00      1          
ssall                  log                    factor                1.0000000000E+00      1.1000000000E-10      1.1000000000E+10       ss                    1.0000000000E+00      0.0000000000E+00      1          
syall                  log                    factor                1.0000000000E+00      1.1000000000E-10      1.1000000000E+10       sy                    1.0000000000E+00      0.0000000000E+00      1          
knw                    log                    factor                1.0000000000E+00      1.1000000000E-10      1.1000000000E+10       hk                    1.0000000000E+00      0.0000000000E+00      1          
ksdfm                  log                    factor                1.0000000000E+00      1.1000000000E-10      1.1000000000E+10       hk                    1.0000000000E+00      0.0000000000E+00      1          
kintr                  log                    factor                1.0000000000E+00      1.1000000000E-10      1.1000000000E+10       hk                    1.0000000000E+00      0.0000000000E+00      1          
kvolc                  log                    factor                1.0000000000E+00      1.1000000000E-10      1.1000000000E+10       hk                    1.0000000000E+00      0.0000000000E+00      1          
ksdmcwest              log                    factor                1.0000000000E+00      1.1000000000E-10      1.1000000000E+10       hk                    1.0000000000E+00      0.0000000000E+00      1          
ksdm                   log                    factor                1.0000000000E+00      1.1000000000E-10      1.1000000000E+10       hk                    1.0000000000E+00      0.0000000000E+00      1          
ksdmc                  log                    factor                1.0000000000E+00      1.1000000000E-10      1.1000000000E+10       hk                    1.0000000000E+00      0.0000000000E+00      1          
kalluv                 log                    factor                1.0000000000E+00      1.1000000000E-10      1.1000000000E+10       hk1                   1.0000000000E+00      0.0000000000E+00      1          
kaxial1                log                    factor                1.0000000000E+00      1.1000000000E-10      1.1000000000E+10       hk1                   1.0000000000E+00      0.0000000000E+00      1          
kaxial2                log                    factor                1.0000000000E+00      1.1000000000E-10      1.1000000000E+10       hk1                   1.0000000000E+00      0.0000000000E+00      1          
ksdeo                  log                    factor                1.0000000000E+00      1.1000000000E-10      1.1000000000E+10       hk                    1.0000000000E+00      0.0000000000E+00      1          
ksilts                 log                    factor                1.0000000000E+00      1.1000000000E-10      1.1000000000E+10       hk                    1.0000000000E+00      0.0000000000E+00      1          
kcgsv                  log                    factor                1.0000000000E+00      1.1000000000E-10      1.1000000000E+10       hk                    1.0000000000E+00      0.0000000000E+00      1          
kpdmt                  log                    factor                1.0000000000E+00      1.1000000000E-10      1.1000000000E+10       hk                    1.0000000000E+00      0.0000000000E+00      1
* observation groups
obgnme               
* observation data
a001                  5.5247170000E+03      1.0000000000E+00       obgnme               
a002                  5.2272260000E+03      1.0000000000E+00       obgnme               
a003                  5.2608910000E+03      1.0000000000E+00       obgnme               
a005                  5.4654810000E+03      1.0000000000E+00       obgnme               
a006                  5.5003080000E+03      1.0000000000E+00       obgnme               
a007                  5.2540980000E+03      1.0000000000E+00       obgnme               
a008                  5.2749910000E+03      1.0000000000E+00       obgnme               
a013                  5.2226520000E+03      1.0000000000E+00       obgnme               
a014                  5.2269060000E+03      1.0000000000E+00       obgnme               
a017                  5.3906720000E+03      1.0000000000E+00       obgnme               
a019                  5.3991380000E+03      1.0000000000E+00       obgnme               
a021                  5.2271420000E+03      1.0000000000E+00       obgnme               
a022                  5.2814040000E+03      1.0000000000E+00       obgnme               
a024                  5.3955210000E+03      1.0000000000E+00       obgnme               
a025                  5.4189050000E+03      1.0000000000E+00       obgnme               
a028                  5.3705260000E+03      1.0000000000E+00       obgnme               
a032                  5.3746610000E+03      1.0000000000E+00       obgnme               
a039                  5.3065610000E+03      1.0000000000E+00       obgnme               
a041                  5.2935730000E+03      1.0000000000E+00       obgnme               
a043                  5.2003820000E+03      1.0000000000E+00       obgnme               
a045                  5.2747320000E+03      1.0000000000E+00       obgnme               
a047                  5.1988740000E+03      1.0000000000E+00       obgnme               
a049                  5.2428890000E+03      1.0000000000E+00       obgnme               
a054                  5.2163730000E+03      1.0000000000E+00       obgnme               
a056                  5.1965960000E+03      1.0000000000E+00       obgnme               
a057                  5.1253070000E+03      1.0000000000E+00       obgnme               
a060                  5.1289880000E+03      1.0000000000E+00       obgnme               
a066                  5.0701940000E+03      1.0000000000E+00       obgnme               
a068                  5.0684290000E+03      1.0000000000E+00       obgnme               
a069                  5.0676090000E+03      1.0000000000E+00       obgnme               
a074                  5.0338500000E+03      1.0000000000E+00       obgnme               
a076                  5.0319440000E+03      1.0000000000E+00       obgnme               
a079                  5.0185140000E+03      1.0000000000E+00       obgnme               
a084                  4.9925880000E+03      1.0000000000E+00       obgnme               
a094                  5.0025740000E+03      1.0000000000E+00       obgnme               
a095                  4.9804000000E+03      1.0000000000E+00       obgnme               
a097                  4.9772600000E+03      1.0000000000E+00       obgnme               
a101                  4.9744980000E+03      1.0000000000E+00       obgnme               
a103                  4.9855710000E+03      1.0000000000E+00       obgnme               
a107                  4.9709510000E+03      1.0000000000E+00       obgnme               
a116                  4.9696000000E+03      1.0000000000E+00       obgnme               
a120                  4.9691920000E+03      1.0000000000E+00       obgnme               
a127                  4.9621050000E+03      1.0000000000E+00       obgnme               
a142                  4.9617550000E+03      1.0000000000E+00       obgnme               
a143                  4.9543390000E+03      1.0000000000E+00       obgnme               
a145                  4.9559680000E+03      1.0000000000E+00       obgnme               
a146                  4.9641840000E+03      1.0000000000E+00       obgnme               
a149                  4.9622690000E+03      1.0000000000E+00       obgnme               
a153                  4.9491340000E+03      1.0000000000E+00       obgnme               
a154                  4.9543660000E+03      1.0000000000E+00       obgnme               
a155                  4.9614470000E+03      1.0000000000E+00       obgnme               
a157                  4.9603330000E+03      1.0000000000E+00       obgnme               
a168                  4.9413740000E+03      1.0000000000E+00       obgnme               
a169                  4.9413760000E+03      1.0000000000E+00       obgnme               
a171                  4.9387500000E+03      1.0000000000E+00       obgnme               
a177                  4.9584380000E+03      1.0000000000E+00       obgnme               
a178                  4.9653200000E+03      1.0000000000E+00       obgnme               
a181                  4.9406160000E+03      1.0000000000E+00       obgnme               
a187                  4.9442930000E+03      1.0000000000E+00       obgnme               
a190                  4.9611310000E+03      1.0000000000E+00       obgnme               
a191                  4.9501830000E+03      1.0000000000E+00       obgnme               
a193                  4.9328900000E+03      1.0000000000E+00       obgnme               
a196                  4.9531760000E+03      1.0000000000E+00       obgnme               
a200                  4.9403160000E+03      1.0000000000E+00       obgnme               
a201                  4.8974830000E+03      1.0000000000E+00       obgnme               
a203                  4.8936590000E+03      1.0000000000E+00       obgnme               
a206                  4.8892060000E+03      1.0000000000E+00       obgnme               
a207                  4.8907000000E+03      1.0000000000E+00       obgnme               
a208                  4.9596100000E+03      1.0000000000E+00       obgnme               
a214                  4.8933080000E+03      1.0000000000E+00       obgnme               
a218                  4.8908730000E+03      1.0000000000E+00       obgnme               
a222                  4.8799630000E+03      1.0000000000E+00       obgnme               
a224                  5.0000000000E+03      1.0000000000E+00       obgnme               
a228                  4.8520030000E+03      1.0000000000E+00       obgnme               
a229                  4.8824090000E+03      1.0000000000E+00       obgnme               
a230                  4.8545570000E+03      1.0000000000E+00       obgnme               
a231                  4.8603380000E+03      1.0000000000E+00       obgnme               
a234                  4.8445190000E+03      1.0000000000E+00       obgnme               
a235                  4.8695580000E+03      1.0000000000E+00       obgnme               
a236                  4.8445540000E+03      1.0000000000E+00       obgnme               
a237                  4.8403160000E+03      1.0000000000E+00       obgnme               
a241                  4.8658210000E+03      1.0000000000E+00       obgnme               
a243                  4.8486510000E+03      1.0000000000E+00       obgnme               
a247                  4.8340130000E+03      1.0000000000E+00       obgnme               
a254                  4.8335520000E+03      1.0000000000E+00       obgnme               
a256                  4.8600870000E+03      1.0000000000E+00       obgnme               
a259                  4.8292220000E+03      1.0000000000E+00       obgnme               
a260                  4.8485000000E+03      1.0000000000E+00       obgnme               
a264                  4.8260360000E+03      1.0000000000E+00       obgnme               
a265                  4.8392960000E+03      1.0000000000E+00       obgnme               
a266                  4.8234530000E+03      1.0000000000E+00       obgnme               
a272                  4.8174330000E+03      1.0000000000E+00       obgnme               
a274                  4.8175150000E+03      1.0000000000E+00       obgnme               
a275                  4.8164530000E+03      1.0000000000E+00       obgnme               
a276                  4.8292020000E+03      1.0000000000E+00       obgnme               
a281                  4.8119050000E+03      1.0000000000E+00       obgnme               
a283                  4.8086590000E+03      1.0000000000E+00       obgnme               
a285                  4.8095560000E+03      1.0000000000E+00       obgnme               
a290                  4.7991750000E+03      1.0000000000E+00       obgnme               
a291                  4.8036130000E+03      1.0000000000E+00       obgnme               
a298                  4.7873210000E+03      1.0000000000E+00       obgnme               
a305                  4.7785990000E+03      1.0000000000E+00       obgnme               
a307                  4.7810380000E+03      1.0000000000E+00       obgnme               
a308                  4.7818240000E+03      1.0000000000E+00       obgnme               
a315                  4.7795430000E+03      1.0000000000E+00       obgnme               
a323                  4.7623210000E+03      1.0000000000E+00       obgnme               
a328                  4.7471030000E+03      1.0000000000E+00       obgnme               
a338                  4.7729260000E+03      1.0000000000E+00       obgnme               
a340                  4.7509130000E+03      1.0000000000E+00       obgnme               
a004                  5.2281570000E+03      1.0000000000E+00       obgnme               
a009                  5.2385290000E+03      1.0000000000E+00       obgnme               
a010                  5.2266300000E+03      1.0000000000E+00       obgnme               
a011                  5.2646970000E+03      1.0000000000E+00       obgnme               
a012                  5.4459650000E+03      1.0000000000E+00       obgnme               
a015                  5.4614530000E+03      1.0000000000E+00       obgnme               
a016                  5.3947940000E+03      1.0000000000E+00       obgnme               
a018                  5.4074520000E+03      1.0000000000E+00       obgnme               
a020                  5.3231520000E+03      1.0000000000E+00       obgnme               
a023                  5.3489620000E+03      1.0000000000E+00       obgnme               
a026                  5.1767290000E+03      1.0000000000E+00       obgnme               
a027                  5.3612260000E+03      1.0000000000E+00       obgnme               
a029                  5.3701140000E+03      1.0000000000E+00       obgnme               
a030                  5.3678800000E+03      1.0000000000E+00       obgnme               
a031                  5.2680790000E+03      1.0000000000E+00       obgnme               
a033                  5.2012130000E+03      1.0000000000E+00       obgnme               
a034                  5.3700500000E+03      1.0000000000E+00       obgnme               
a035                  5.3705960000E+03      1.0000000000E+00       obgnme               
a036                  5.3703560000E+03      1.0000000000E+00       obgnme               
a037                  5.2448180000E+03      1.0000000000E+00       obgnme               
a038                  5.3328510000E+03      1.0000000000E+00       obgnme               
a040                  5.2965420000E+03      1.0000000000E+00       obgnme               
a042                  5.2236920000E+03      1.0000000000E+00       obgnme               
a044                  5.2746920000E+03      1.0000000000E+00       obgnme               
a046                  5.2746370000E+03      1.0000000000E+00       obgnme               
a048                  5.1331200000E+03      1.0000000000E+00       obgnme               
a050                  5.2073770000E+03      1.0000000000E+00       obgnme               
a051                  5.1208500000E+03      1.0000000000E+00       obgnme               
a052                  5.1219870000E+03      1.0000000000E+00       obgnme               
a053                  5.2218430000E+03      1.0000000000E+00       obgnme               
a055                  5.1406690000E+03      1.0000000000E+00       obgnme               
a058                  5.1379290000E+03      1.0000000000E+00       obgnme               
a059                  5.1324060000E+03      1.0000000000E+00       obgnme               
a061                  5.1491950000E+03      1.0000000000E+00       obgnme               
a062                  5.1010470000E+03      1.0000000000E+00       obgnme               
a063                  5.1045210000E+03      1.0000000000E+00       obgnme               
a064                  5.1022430000E+03      1.0000000000E+00       obgnme               
a065                  5.0666740000E+03      1.0000000000E+00       obgnme               
a070                  5.0638840000E+03      1.0000000000E+00       obgnme               
a071                  5.0503920000E+03      1.0000000000E+00       obgnme               
a072                  5.0415750000E+03      1.0000000000E+00       obgnme               
a073                  5.0497030000E+03      1.0000000000E+00       obgnme               
a075                  5.0277780000E+03      1.0000000000E+00       obgnme               
a077                  5.0224930000E+03      1.0000000000E+00       obgnme               
a078                  5.0224920000E+03      1.0000000000E+00       obgnme               
a080                  5.0181910000E+03      1.0000000000E+00       obgnme               
a081                  5.0096270000E+03      1.0000000000E+00       obgnme               
a082                  5.0149670000E+03      1.0000000000E+00       obgnme               
a083                  5.0170950000E+03      1.0000000000E+00       obgnme               
a085                  4.9938650000E+03      1.0000000000E+00       obgnme               
a086                  4.9916650000E+03      1.0000000000E+00       obgnme               
a087                  4.9841450000E+03      1.0000000000E+00       obgnme               
a088                  4.9828130000E+03      1.0000000000E+00       obgnme               
a089                  4.9828120000E+03      1.0000000000E+00       obgnme               
a090                  4.9828130000E+03      1.0000000000E+00       obgnme               
a091                  4.9827160000E+03      1.0000000000E+00       obgnme               
a092                  4.9826480000E+03      1.0000000000E+00       obgnme               
a096                  4.9782730000E+03      1.0000000000E+00       obgnme               
a098                  4.9755820000E+03      1.0000000000E+00       obgnme               
a099                  4.9754330000E+03      1.0000000000E+00       obgnme               
a100                  4.9784110000E+03      1.0000000000E+00       obgnme               
a102                  4.9738200000E+03      1.0000000000E+00       obgnme               
a104                  4.9715070000E+03      1.0000000000E+00       obgnme               
a105                  4.9733240000E+03      1.0000000000E+00       obgnme               
a106                  4.9709450000E+03      1.0000000000E+00       obgnme               
a108                  4.9776490000E+03      1.0000000000E+00       obgnme               
a109                  4.9699630000E+03      1.0000000000E+00       obgnme               
a110                  4.9699630000E+03      1.0000000000E+00       obgnme               
a111                  4.9684100000E+03      1.0000000000E+00       obgnme               
a112                  4.9686880000E+03      1.0000000000E+00       obgnme               
a113                  4.9671180000E+03      1.0000000000E+00       obgnme               
a114                  4.9727570000E+03      1.0000000000E+00       obgnme               
a115                  4.9761870000E+03      1.0000000000E+00       obgnme               
a117                  4.9672910000E+03      1.0000000000E+00       obgnme               
a118                  4.9768990000E+03      1.0000000000E+00       obgnme               
a119                  4.9669600000E+03      1.0000000000E+00       obgnme               
a121                  4.9780640000E+03      1.0000000000E+00       obgnme               
a122                  4.9830800000E+03      1.0000000000E+00       obgnme               
a123                  4.9802100000E+03      1.0000000000E+00       obgnme               
a124                  4.9728730000E+03      1.0000000000E+00       obgnme               
a125                  4.9731740000E+03      1.0000000000E+00       obgnme               
a126                  4.9745550000E+03      1.0000000000E+00       obgnme               
a128                  4.9640510000E+03      1.0000000000E+00       obgnme               
a129                  4.9786570000E+03      1.0000000000E+00       obgnme               
a130                  4.9752600000E+03      1.0000000000E+00       obgnme               
a131                  4.9611420000E+03      1.0000000000E+00       obgnme               
a132                  4.9707570000E+03      1.0000000000E+00       obgnme               
a133                  4.9813270000E+03      1.0000000000E+00       obgnme               
a134                  4.9730690000E+03      1.0000000000E+00       obgnme               
a135                  4.9719110000E+03      1.0000000000E+00       obgnme               
a136                  4.9677950000E+03      1.0000000000E+00       obgnme               
a137                  4.9738970000E+03      1.0000000000E+00       obgnme               
a138                  4.9691470000E+03      1.0000000000E+00       obgnme               
a139                  4.9544730000E+03      1.0000000000E+00       obgnme               
a140                  4.9539410000E+03      1.0000000000E+00       obgnme               
a141                  4.9557800000E+03      1.0000000000E+00       obgnme               
a144                  4.9555840000E+03      1.0000000000E+00       obgnme               
a147                  4.9521880000E+03      1.0000000000E+00       obgnme               
a148                  4.9521290000E+03      1.0000000000E+00       obgnme               
a150                  4.9541920000E+03      1.0000000000E+00       obgnme               
a151                  4.9526590000E+03      1.0000000000E+00       obgnme               
a152                  4.9506630000E+03      1.0000000000E+00       obgnme               
a156                  4.9477590000E+03      1.0000000000E+00       obgnme               
a158                  4.9503730000E+03      1.0000000000E+00       obgnme               
a159                  4.9557220000E+03      1.0000000000E+00       obgnme               
a160                  4.9461740000E+03      1.0000000000E+00       obgnme               
a161                  4.9516630000E+03      1.0000000000E+00       obgnme               
a162                  4.9765790000E+03      1.0000000000E+00       obgnme               
a163                  4.9472770000E+03      1.0000000000E+00       obgnme               
a164                  4.9679320000E+03      1.0000000000E+00       obgnme               
a165                  4.9723600000E+03      1.0000000000E+00       obgnme               
a166                  4.9535970000E+03      1.0000000000E+00       obgnme               
a167                  4.9415220000E+03      1.0000000000E+00       obgnme               
a170                  4.9681280000E+03      1.0000000000E+00       obgnme               
a172                  4.9404790000E+03      1.0000000000E+00       obgnme               
a173                  4.9456420000E+03      1.0000000000E+00       obgnme               
a174                  4.9505110000E+03      1.0000000000E+00       obgnme               
a175                  4.9373500000E+03      1.0000000000E+00       obgnme               
a176                  4.9361390000E+03      1.0000000000E+00       obgnme               
a179                  4.9300710000E+03      1.0000000000E+00       obgnme               
a180                  4.9303360000E+03      1.0000000000E+00       obgnme               
a182                  4.9350450000E+03      1.0000000000E+00       obgnme               
a183                  4.9480230000E+03      1.0000000000E+00       obgnme               
a184                  4.9363740000E+03      1.0000000000E+00       obgnme               
a185                  5.0052360000E+03      1.0000000000E+00       obgnme               
a186                  4.9505060000E+03      1.0000000000E+00       obgnme               
a188                  4.9556130000E+03      1.0000000000E+00       obgnme               
a189                  4.9388170000E+03      1.0000000000E+00       obgnme               
a192                  4.9470350000E+03      1.0000000000E+00       obgnme               
a194                  4.9507560000E+03      1.0000000000E+00       obgnme               
a195                  4.9278000000E+03      1.0000000000E+00       obgnme               
a197                  4.9184120000E+03      1.0000000000E+00       obgnme               
a198                  4.9302880000E+03      1.0000000000E+00       obgnme               
a199                  4.9165310000E+03      1.0000000000E+00       obgnme               
a202                  4.9057050000E+03      1.0000000000E+00       obgnme               
a204                  5.0000000000E+03      1.0000000000E+00       obgnme               
a205                  4.9096360000E+03      1.0000000000E+00       obgnme               
a209                  4.9036470000E+03      1.0000000000E+00       obgnme               
a210                  4.9135820000E+03      1.0000000000E+00       obgnme               
a211                  4.9015740000E+03      1.0000000000E+00       obgnme               
a212                  4.9011580000E+03      1.0000000000E+00       obgnme               
a213                  4.9100850000E+03      1.0000000000E+00       obgnme               
a215                  4.9035730000E+03      1.0000000000E+00       obgnme               
a216                  4.9245850000E+03      1.0000000000E+00       obgnme               
a217                  4.8941660000E+03      1.0000000000E+00       obgnme               